test/TEST190523/MAI_LinesMV.dss
new line.MV3PMAI0 bus1=BUSMVMAI1.1.2.3 bus2=BUSMVMAI136.1.2.3 geometry=3FMV465AAAC2/0AAAC_H length=2.0830 units=m !1ph_basekV=7.22
new line.MV3PMAI1 bus1=BUSMVMAI3.1.2.3 bus2=BUSMVMAI2.1.2.3 geometry=3FMV465AAAC2/0AAAC_H length=4.6816 units=m !1ph_basekV=7.22
new line.MV3PMAI2 bus1=BUSMVMAI2.1.2.3 bus2=BUSMVMAI4.1.2.3 geometry=3FMV465AAAC2/0AAAC_H length=47.7908 units=m !1ph_basekV=7.22
new line.MV3PMAI3 bus1=BUSMVMAI46.1.2.3 bus2=BUSMVMAI3.1.2.3 geometry=3FMV465AAAC2/0AAAC_H length=1.9997 units=m !1ph_basekV=7.22
new line.MV3PMAI4 bus1=BUSMVMAI4.1.2.3 bus2=BUSMVMAI5.1.2.3 geometry=3FMV465AAAC2/0AAAC_H length=44.4422 units=m !1ph_basekV=7.22
new line.MV1PMAI5 bus1=BUSMVMAI4.1 bus2=BUSMVMAI862.1 geometry=1FMV2/0AAAC2/0AAAC_H length=26.8324 units=m !1ph_basekV=7.22
new line.MV3PMAI6 bus1=BUSMVMAI5.1.2.3 bus2=BUSMVMAI6.1.2.3 geometry=3FMV465AAAC2/0AAAC_H length=8.3124 units=m !1ph_basekV=7.22
new line.MV1PMAI7 bus1=BUSMVMAI5.3 bus2=BUSMVMAI859.3 geometry=1FMV2/0AAAC2/0AAAC_H length=11.4772 units=m !1ph_basekV=7.22
new line.MV1PMAI8 bus1=BUSMVMAI5.3 bus2=BUSMVMAI860.3 geometry=1FMV2/0AAAC2/0AAAC_H length=19.0802 units=m !1ph_basekV=7.22
new line.MV3PMAI9 bus1=BUSMVMAI6.1.2.3 bus2=BUSMVMAI7.1.2.3 geometry=3FMV4/0AAAC2/0AAAC_H length=21.8311 units=m !1ph_basekV=7.22
new line.MV3PMAI10 bus1=BUSMVMAI7.1.2.3 bus2=BUSMVMAI8.1.2.3 geometry=3FMV465AAAC2/0AAAC_H length=50.4839 units=m !1ph_basekV=7.22
new line.MV3PMAI11 bus1=BUSMVMAI7.1.2.3 bus2=BUSMVMAI9.1.2.3 geometry=3FMV2/0AAAC2/0AAAC_H length=11.6773 units=m !1ph_basekV=7.22
new line.MV3PMAI12 bus1=BUSMVMAI7.1.2.3 bus2=BUSMVMAI10.1.2.3 geometry=3FMV4/0AAAC2/0AAAC_H length=37.3000 units=m !1ph_basekV=7.22
new line.MV3PMAI13 bus1=BUSMVMAI7.1.2.3 bus2=BUSMVMAI56.1.2.3 geometry=3FMV4/0AAAC2/0AAAC_H length=18.6500 units=m !1ph_basekV=7.22
new line.MV1PMAI14 bus1=BUSMVMAI859.3 bus2=BUSMVMAI861.3 geometry=1FMV2/0AAAC2/0AAAC_H length=29.7323 units=m !1ph_basekV=7.22
new line.MV3PMAI15 bus1=BUSMVMAI8.1.2.3 bus2=BUSMVMAI12.1.2.3 geometry=3FMV465AAAC2/0AAAC_H length=41.1263 units=m !1ph_basekV=7.22
new line.MV3PMAI16 bus1=BUSMVMAI8.1.2.3 bus2=BUSMVMAI51.1.2.3 geometry=3FMV2/0AAAC2/0AAAC_H length=0.7791 units=m !1ph_basekV=7.22
new line.MV1PMAI17 bus1=BUSMVMAI8.1 bus2=BUSMVMAI2171.1 geometry=1FMV2CU_15XLP length=5.8265 units=m !1ph_basekV=7.22
new line.MV1PMAI18 bus1=BUSMVMAI861.3 bus2=BUSMVMAI863.3 geometry=1FMV2/0AAAC2/0AAAC_H length=21.1435 units=m !1ph_basekV=7.22
new line.MV1PMAI19 bus1=BUSMVMAI9.3 bus2=BUSMVMAI2165.3 geometry=1FMV2CU_15XLP length=6.6390 units=m !1ph_basekV=7.22
new line.MV3PMAI20 bus1=BUSMVMAI9.1.2.3 bus2=BUSMVMAI694.1.2.3 geometry=3FMV2CU_15XLP length=14.1748 units=m !1ph_basekV=7.22
new line.MV3PMAI21 bus1=BUSMVMAI10.1.2.3 bus2=BUSMVMAI56.1.2.3 geometry=3FMV4/0AAAC2/0AAAC_H length=18.6500 units=m !1ph_basekV=7.22
new line.MV3PMAI22 bus1=BUSMVMAI10.1.2.3 bus2=BUSMVMAI122.1.2.3 geometry=3FMV4/0AAAC2/0AAAC_H length=1.0000 units=m !1ph_basekV=7.22
new line.MV3PMAI23 bus1=BUSMVMAI12.1.2.3 bus2=BUSMVMAI11.1.2.3 geometry=3FMV2/0AAAC2/0AAAC_H length=20.5844 units=m !1ph_basekV=7.22
new line.MV3PMAI24 bus1=BUSMVMAI12.1.2.3 bus2=BUSMVMAI13.1.2.3 geometry=3FMV2/0AAAC2/0AAAC_H length=21.9614 units=m !1ph_basekV=7.22
new line.MV3PMAI25 bus1=BUSMVMAI12.1.2.3 bus2=BUSMVMAI18.1.2.3 geometry=3FMV465AAAC2/0AAAC_H length=15.3948 units=m !1ph_basekV=7.22
new line.MV3PMAI26 bus1=BUSMVMAI13.1.2.3 bus2=BUSMVMAI14.1.2.3 geometry=3FMV2/0AAAC2/0AAAC_H length=37.0944 units=m !1ph_basekV=7.22
new line.MV3PMAI27 bus1=BUSMVMAI14.1.2.3 bus2=BUSMVMAI15.1.2.3 geometry=3FMV2/0AAAC2/0AAAC_H length=40.7190 units=m !1ph_basekV=7.22
new line.MV3PMAI28 bus1=BUSMVMAI15.1.2.3 bus2=BUSMVMAI16.1.2.3 geometry=3FMV2/0AAAC2/0AAAC_H length=41.0300 units=m !1ph_basekV=7.22
new line.MV1PMAI29 bus1=BUSMVMAI15.2 bus2=BUSMVMAI2166.2 geometry=1FMV2CU_15XLP length=2.6980 units=m !1ph_basekV=7.22
new line.MV1PMAI30 bus1=BUSMVMAI862.1 bus2=BUSMVMAI2172.1 geometry=1FMV2CU_15XLP length=15.5115 units=m !1ph_basekV=7.22
new line.MV1PMAI31 bus1=BUSMVMAI863.3 bus2=BUSMVMAI864.3 geometry=1FMV2/0AAAC2/0AAAC_H length=18.5402 units=m !1ph_basekV=7.22
new line.MV1PMAI32 bus1=BUSMVMAI864.3 bus2=BUSMVMAI865.3 geometry=1FMV2/0AAAC2/0AAAC_H length=30.1032 units=m !1ph_basekV=7.22
new line.MV3PMAI33 bus1=BUSMVMAI16.1.2.3 bus2=BUSMVMAI17.1.2.3 geometry=3FMV2/0AAAC2/0AAAC_H length=36.5153 units=m !1ph_basekV=7.22
new line.MV3PMAI34 bus1=BUSMVMAI16.1.2.3 bus2=BUSMVMAI695.1.2.3 geometry=3FMV2CU_15XLP length=8.9506 units=m !1ph_basekV=7.22
new line.MV1PMAI35 bus1=BUSMVMAI865.3 bus2=BUSMVMAI866.3 geometry=1FMV2/0AAAC2/0AAAC_H length=6.5156 units=m !1ph_basekV=7.22
new line.MV1PMAI36 bus1=BUSMVMAI865.3 bus2=BUSMVMAI2176.3 geometry=1FMV2CU_15XLP length=6.0954 units=m !1ph_basekV=7.22
new line.MV1PMAI37 bus1=BUSMVMAI865.3 bus2=BUSMVMAI2177.3 geometry=1FMV2CU_15XLP length=6.5250 units=m !1ph_basekV=7.22
new line.MV1PMAI38 bus1=BUSMVMAI865.3 bus2=BUSMVMAI2178.3 geometry=1FMV2CU_15XLP length=25.5175 units=m !1ph_basekV=7.22
new line.MV3PMAI39 bus1=BUSMVMAI18.1.2.3 bus2=BUSMVMAI19.1.2.3 geometry=3FMV465AAAC2/0AAAC_H length=27.6254 units=m !1ph_basekV=7.22
new line.MV3PMAI40 bus1=BUSMVMAI19.1.2.3 bus2=BUSMVMAI20.1.2.3 geometry=3FMV465AAAC2/0AAAC_H length=38.9066 units=m !1ph_basekV=7.22
new line.MV3PMAI41 bus1=BUSMVMAI19.1.2.3 bus2=BUSMVMAI53.1.2.3 geometry=3FMV2/0AAAC2/0AAAC_H length=21.7137 units=m !1ph_basekV=7.22
new line.MV3PMAI42 bus1=BUSMVMAI20.1.2.3 bus2=BUSMVMAI21.1.2.3 geometry=3FMV465AAAC2/0AAAC_H length=40.8913 units=m !1ph_basekV=7.22
new line.MV3PMAI43 bus1=BUSMVMAI21.1.2.3 bus2=BUSMVMAI22.1.2.3 geometry=3FMV465AAAC2/0AAAC_H length=47.9140 units=m !1ph_basekV=7.22
new line.MV3PMAI44 bus1=BUSMVMAI21.1.2.3 bus2=BUSMVMAI23.1.2.3 geometry=3FMV465AAAC2/0AAAC_H length=22.2446 units=m !1ph_basekV=7.22
new line.MV3PMAI45 bus1=BUSMVMAI22.1.2.3 bus2=BUSMVMAI25.1.2.3 geometry=3FMV465AAAC2/0AAAC_H length=49.4092 units=m !1ph_basekV=7.22
new line.MV3PMAI46 bus1=BUSMVMAI22.1.2.3 bus2=BUSMVMAI52.1.2.3 geometry=3FMV2/0AAAC2/0AAAC_H length=17.9761 units=m !1ph_basekV=7.22
new line.MV3PMAI47 bus1=BUSMVMAI22.1.2.3 bus2=BUSMVMAI54.1.2.3 geometry=3FMV2/0AAAC2/0AAAC_H length=18.8378 units=m !1ph_basekV=7.22
new line.MV3PMAI48 bus1=BUSMVMAI22.1.2.3 bus2=BUSMVMAI55.1.2.3 geometry=3FMV2/0AAAC2/0AAAC_H length=17.9434 units=m !1ph_basekV=7.22
new line.MV3PMAI49 bus1=BUSMVMAI23.1.2.3 bus2=BUSMVMAI696.1.2.3 geometry=3FMV2CU_15XLP length=34.9187 units=m !1ph_basekV=7.22
new line.MV3PMAI50 bus1=BUSMVMAI25.1.2.3 bus2=BUSMVMAI24.1.2.3 geometry=3FMV465AAAC2/0AAAC_H length=4.7709 units=m !1ph_basekV=7.22
new line.MV3PMAI51 bus1=BUSMVMAI24.1.2.3 bus2=BUSMVMAI26.1.2.3 geometry=3FMV465AAAC2/0AAAC_H length=49.2721 units=m !1ph_basekV=7.22
new line.MV3PMAI52 bus1=BUSMVMAI25.1.2.3 bus2=BUSMVMAI49.1.2.3 geometry=3FMV2/0AAAC2/0AAAC_H length=20.5044 units=m !1ph_basekV=7.22
new line.MV3PMAI53 bus1=BUSMVMAI25.1.2.3 bus2=BUSMVMAI50.1.2.3 geometry=3FMV2/0AAAC2/0AAAC_H length=39.9272 units=m !1ph_basekV=7.22
new line.MV3PMAI54 bus1=BUSMVMAI26.1.2.3 bus2=BUSMVMAI27.1.2.3 geometry=3FMV2/0AAAC2/0AAAC_H length=33.3691 units=m !1ph_basekV=7.22
new line.MV3PMAI55 bus1=BUSMVMAI26.1.2.3 bus2=BUSMVMAI28.1.2.3 geometry=3FMV465AAAC2/0AAAC_H length=37.7102 units=m !1ph_basekV=7.22
new line.MV3PMAI56 bus1=BUSMVMAI27.1.2.3 bus2=BUSMVMAI29.1.2.3 geometry=3FMV2/0AAAC2/0AAAC_H length=34.6373 units=m !1ph_basekV=7.22
new line.MV3PMAI57 bus1=BUSMVMAI28.1.2.3 bus2=BUSMVMAI31.1.2.3 geometry=3FMV465AAAC2/0AAAC_H length=43.7056 units=m !1ph_basekV=7.22
new line.MV3PMAI58 bus1=BUSMVMAI29.1.2.3 bus2=BUSMVMAI30.1.2.3 geometry=3FMV2/0AAAC2/0AAAC_H length=47.9317 units=m !1ph_basekV=7.22
new line.MV3PMAI59 bus1=BUSMVMAI30.1.2.3 bus2=BUSMVMAI34.1.2.3 geometry=3FMV2/0AAAC2/0AAAC_H length=40.3782 units=m !1ph_basekV=7.22
new line.MV1PMAI60 bus1=BUSMVMAI31.1 bus2=BUSMVMAI867.1 geometry=1FMV2/0AAAC2/0AAAC_H length=32.0228 units=m !1ph_basekV=7.22
new line.MV3PMAI61 bus1=BUSMVMAI31.1.2.3 bus2=BUSMVMAI43.1.2.3 geometry=3FMV465AAAC2/0AAAC_H length=0.9996 units=m !1ph_basekV=7.22
new line.MV1PMAI62 bus1=BUSMVMAI31.2 bus2=BUSMVMAI871.2 geometry=1FMV2/0AAAC2/0AAAC_H length=9.3773 units=m !1ph_basekV=7.22
new line.MV3PMAI63 bus1=BUSMVMAI33.1.2.3 bus2=BUSMVMAI32.1.2.3 geometry=3FMV465AAAC2/0AAAC_H length=36.9585 units=m !1ph_basekV=7.22
new line.MV3PMAI64 bus1=BUSMVMAI32.1.2.3 bus2=BUSMVMAI37.1.2.3 geometry=3FMV465AAAC2/0AAAC_H length=51.0862 units=m !1ph_basekV=7.22
new line.MV3PMAI65 bus1=BUSMVMAI44.1.2.3 bus2=BUSMVMAI33.1.2.3 geometry=3FMV465AAAC2/0AAAC_H length=11.3693 units=m !1ph_basekV=7.22
new line.MV3PMAI66 bus1=BUSMVMAI34.1.2.3 bus2=BUSMVMAI35.1.2.3 geometry=3FMV2/0AAAC2/0AAAC_H length=40.3607 units=m !1ph_basekV=7.22
new line.MV3PMAI67 bus1=BUSMVMAI35.1.2.3 bus2=BUSMVMAI36.1.2.3 geometry=3FMV2/0AAAC2/0AAAC_H length=37.4287 units=m !1ph_basekV=7.22
new line.MV1PMAI68 bus1=BUSMVMAI867.1 bus2=BUSMVMAI869.1 geometry=1FMV1/0AAC2/0AAAC_H length=0.9999 units=m !1ph_basekV=7.22
new line.MV3PMAI69 bus1=BUSMVMAI37.1.2.3 bus2=BUSMVMAI38.1.2.3 geometry=3FMV465AAAC2/0AAAC_H length=40.2484 units=m !1ph_basekV=7.22
new line.MV1PMAI70 bus1=BUSMVMAI37.1 bus2=BUSMVMAI2181.1 geometry=1FMV2CU_15XLP length=17.9637 units=m !1ph_basekV=7.22
new line.MV1PMAI71 bus1=BUSMVMAI869.1 bus2=BUSMVMAI868.1 geometry=1FMV2/0AAAC2/0AAAC_H length=54.5421 units=m !1ph_basekV=7.22
new line.MV1PMAI72 bus1=BUSMVMAI868.1 bus2=BUSMVMAI870.1 geometry=1FMV2/0AAAC2/0AAAC_H length=57.2456 units=m !1ph_basekV=7.22
new line.MV3PMAI73 bus1=BUSMVMAI38.1.2.3 bus2=BUSMVMAI39.1.2.3 geometry=3FMV2/0AAAC2/0AAAC_H length=20.7128 units=m !1ph_basekV=7.22
new line.MV3PMAI74 bus1=BUSMVMAI38.1.2.3 bus2=BUSMVMAI40.1.2.3 geometry=3FMV465AAAC2/0AAAC_H length=40.1659 units=m !1ph_basekV=7.22
new line.MV3PMAI75 bus1=BUSMVMAI39.1.2.3 bus2=BUSMVMAI697.1.2.3 geometry=3FMV2CU_15XLP length=46.8298 units=m !1ph_basekV=7.22
new line.MV3PMAI76 bus1=BUSMVMAI40.1.2.3 bus2=BUSMVMAI41.1.2.3 geometry=3FMV465AAAC2/0AAAC_H length=46.4831 units=m !1ph_basekV=7.22
new line.MV3PMAI77 bus1=BUSMVMAI41.1.2.3 bus2=BUSMVMAI42.1.2.3 geometry=3FMV465AAAC2/0AAAC_H length=32.3477 units=m !1ph_basekV=7.22
new line.MV3PMAI78 bus1=BUSMVMAI41.1.2.3 bus2=BUSMVMAI48.1.2.3 geometry=3FMV465AAAC2/0AAAC_H length=77.7961 units=m !1ph_basekV=7.22
new line.MV3PMAI79 bus1=BUSMVMAI41.1.2.3 bus2=BUSMVMAI303.1.2.3 geometry=3FMV465AAAC2/0AAAC_H length=38.8981 units=m !1ph_basekV=7.22
new line.MV3PMAI80 bus1=BUSMVMAI42.1.2.3 bus2=BUSMVMAI45.1.2.3 geometry=3FMV2/0AAAC2/0AAAC_H length=8.9634 units=m !1ph_basekV=7.22
new line.MV3PMAI81 bus1=BUSMVMAI43.1.2.3 bus2=BUSMVMAI44.1.2.3 geometry=3FMV465AAAC2/0AAAC_H length=0.9996 units=m !1ph_basekV=7.22
new line.MV3PMAI82 bus1=BUSMVMAI45.1.2.3 bus2=BUSMVMAI701.1.2.3 geometry=3FMV2CU_15XLP length=9.3478 units=m !1ph_basekV=7.22
new line.MV3PMAI83 bus1=BUSMVMAI47.1.2.3 bus2=BUSMVMAI46.1.2.3 geometry=3FMV465AAAC2/0AAAC_H length=42.1021 units=m !1ph_basekV=7.22
new line.MV3PMAI84 bus1=BUSMVMAI46.1.2.3 bus2=BUSMVMAI179.1.2.3 geometry=3FMV465AAAC2/0AAAC_H length=21.0510 units=m !1ph_basekV=7.22
new line.MV3PMAI85 bus1=BUSMVMAI160.1.2.3 bus2=BUSMVMAI47.1.2.3 geometry=3FMV465AAAC2/0AAAC_H length=50.4963 units=m !1ph_basekV=7.22
new line.MV3PMAI86 bus1=BUSMVMAI47.1.2.3 bus2=BUSMVMAI179.1.2.3 geometry=3FMV465AAAC2/0AAAC_H length=21.0510 units=m !1ph_basekV=7.22
new line.MV1PMAI87 bus1=BUSMVMAI48.1 bus2=BUSMVMAI1103.1 geometry=1FMV2AAAC2/0AAAC_H length=7.3850 units=m !1ph_basekV=7.22
new line.MV3PMAI88 bus1=BUSMVMAI48.1.2.3 bus2=BUSMVMAI259.1.2.3 geometry=3FMV465AAAC2/0AAAC_H length=18.9447 units=m !1ph_basekV=7.22
new line.MV3PMAI89 bus1=BUSMVMAI48.1.2.3 bus2=BUSMVMAI303.1.2.3 geometry=3FMV465AAAC2/0AAAC_H length=38.8981 units=m !1ph_basekV=7.22
new line.MV3PMAI90 bus1=BUSMVMAI48.1.2.3 bus2=BUSMVMAI304.1.2.3 geometry=3FMV465AAAC2/0AAAC_H length=18.2137 units=m !1ph_basekV=7.22
new line.MV3PMAI91 bus1=BUSMVMAI50.1.2.3 bus2=BUSMVMAI702.1.2.3 geometry=3FMV2CU_15XLP length=4.0986 units=m !1ph_basekV=7.22
new line.MV3PMAI92 bus1=BUSMVMAI58.1.2.3 bus2=BUSMVMAI57.1.2.3 geometry=3FMV4/0AAAC2/0AAAC_H length=44.0815 units=m !1ph_basekV=7.22
new line.MV3PMAI93 bus1=BUSMVMAI57.1.2.3 bus2=BUSMVMAI60.1.2.3 geometry=3FMV4/0AAAC2/0AAAC_H length=18.3837 units=m !1ph_basekV=7.22
new line.MV3PMAI94 bus1=BUSMVMAI57.1.2.3 bus2=BUSMVMAI703.1.2.3 geometry=3FMV2CU_15XLP length=17.6340 units=m !1ph_basekV=7.22
new line.MV3PMAI95 bus1=BUSMVMAI123.1.2.3 bus2=BUSMVMAI58.1.2.3 geometry=3FMV4/0AAAC2/0AAAC_H length=10.9201 units=m !1ph_basekV=7.22
new line.MV3PMAI96 bus1=BUSMVMAI60.1.2.3 bus2=BUSMVMAI59.1.2.3 geometry=3FMV4/0AAAC2/0AAAC_H length=24.1810 units=m !1ph_basekV=7.22
new line.MV3PMAI97 bus1=BUSMVMAI59.1.2.3 bus2=BUSMVMAI61.1.2.3 geometry=3FMV4/0AAAC2/0AAAC_H length=40.2686 units=m !1ph_basekV=7.22
new line.MV3PMAI98 bus1=BUSMVMAI60.1.2.3 bus2=BUSMVMAI63.1.2.3 geometry=3FMV4/0AAAC2/0AAAC_H length=15.6665 units=m !1ph_basekV=7.22
new line.MV1PMAI99 bus1=BUSMVMAI60.3 bus2=BUSMVMAI874.3 geometry=1FMV2/0AAAC2/0AAAC_H length=31.6208 units=m !1ph_basekV=7.22
new line.MV3PMAI100 bus1=BUSMVMAI61.1.2.3 bus2=BUSMVMAI62.1.2.3 geometry=3FMV4/0AAAC2/0AAAC_H length=42.3433 units=m !1ph_basekV=7.22
new line.MV3PMAI101 bus1=BUSMVMAI62.1.2.3 bus2=BUSMVMAI64.1.2.3 geometry=3FMV4/0AAAC2/0AAAC_H length=42.9198 units=m !1ph_basekV=7.22
new line.MV1PMAI102 bus1=BUSMVMAI62.3 bus2=BUSMVMAI942.3 geometry=1FMV2/0AAAC2/0AAAC_H length=1.0000 units=m !1ph_basekV=7.22
new line.MV1PMAI103 bus1=BUSMVMAI873.3 bus2=BUSMVMAI872.3 geometry=1FMV2/0AAAC2/0AAAC_H length=49.0885 units=m !1ph_basekV=7.22
new line.MV1PMAI104 bus1=BUSMVMAI872.3 bus2=BUSMVMAI880.3 geometry=1FMV2/0AAAC2/0AAAC_H length=0.9844 units=m !1ph_basekV=7.22
new line.MV1PMAI105 bus1=BUSMVMAI942.3 bus2=BUSMVMAI873.3 geometry=1FMV2/0AAAC2/0AAAC_H length=1.0000 units=m !1ph_basekV=7.22
new line.MV1PMAI106 bus1=BUSMVMAI63.3 bus2=BUSMVMAI945.3 geometry=1FMV2/0AAAC2/0AAAC_H length=1.9667 units=m !1ph_basekV=7.22
new line.MV3PMAI107 bus1=BUSMVMAI64.1.2.3 bus2=BUSMVMAI65.1.2.3 geometry=3FMV4/0AAAC2/0AAAC_H length=47.9943 units=m !1ph_basekV=7.22
new line.MV3PMAI108 bus1=BUSMVMAI65.1.2.3 bus2=BUSMVMAI66.1.2.3 geometry=3FMV4/0AAAC2/0AAAC_H length=48.4509 units=m !1ph_basekV=7.22
new line.MV3PMAI109 bus1=BUSMVMAI66.1.2.3 bus2=BUSMVMAI67.1.2.3 geometry=3FMV4/0AAAC2/0AAAC_H length=52.3190 units=m !1ph_basekV=7.22
new line.MV1PMAI110 bus1=BUSMVMAI67.1 bus2=BUSMVMAI878.1 geometry=1FMV2/0AAAC2/0AAAC_H length=34.3207 units=m !1ph_basekV=7.22
new line.MV3PMAI111 bus1=BUSMVMAI67.1.2.3 bus2=BUSMVMAI68.1.2.3 geometry=3FMV4/0AAAC2/0AAAC_H length=40.7926 units=m !1ph_basekV=7.22
new line.MV3PMAI112 bus1=BUSMVMAI67.1.2.3 bus2=BUSMVMAI706.1.2.3 geometry=3FMV2CU_15XLP length=6.8663 units=m !1ph_basekV=7.22
new line.MV1PMAI113 bus1=BUSMVMAI876.3 bus2=BUSMVMAI875.3 geometry=1FMV2/0AAAC2/0AAAC_H length=42.6020 units=m !1ph_basekV=7.22
new line.MV1PMAI114 bus1=BUSMVMAI875.3 bus2=BUSMVMAI877.3 geometry=1FMV2/0AAAC2/0AAAC_H length=14.5696 units=m !1ph_basekV=7.22
new line.MV1PMAI115 bus1=BUSMVMAI945.3 bus2=BUSMVMAI876.3 geometry=1FMV2/0AAAC2/0AAAC_H length=1.9997 units=m !1ph_basekV=7.22
new line.MV1PMAI116 bus1=BUSMVMAI877.3 bus2=BUSMVMAI883.3 geometry=1FMV2/0AAAC2/0AAAC_H length=42.7990 units=m !1ph_basekV=7.22
new line.MV1PMAI117 bus1=BUSMVMAI877.3 bus2=BUSMVMAI884.3 geometry=1FMV2/0AAAC2/0AAAC_H length=14.4664 units=m !1ph_basekV=7.22
new line.MV1PMAI118 bus1=BUSMVMAI877.3 bus2=BUSMVMAI886.3 geometry=1FMV2/0AAAC2/0AAAC_H length=24.7181 units=m !1ph_basekV=7.22
new line.MV1PMAI119 bus1=BUSMVMAI878.1 bus2=BUSMVMAI885.1 geometry=1FMV2/0CU2/0AAAC_H length=68.9597 units=m !1ph_basekV=7.22
new line.MV1PMAI120 bus1=BUSMVMAI880.3 bus2=BUSMVMAI879.3 geometry=1FMV2/0AAAC2/0AAAC_H length=70.1588 units=m !1ph_basekV=7.22
new line.MV1PMAI121 bus1=BUSMVMAI879.3 bus2=BUSMVMAI881.3 geometry=1FMV2/0AAAC2/0AAAC_H length=48.7507 units=m !1ph_basekV=7.22
new line.MV1PMAI122 bus1=BUSMVMAI879.3 bus2=BUSMVMAI888.3 geometry=1FMV2/0AAAC2/0AAAC_H length=35.1996 units=m !1ph_basekV=7.22
new line.MV1PMAI123 bus1=BUSMVMAI881.3 bus2=BUSMVMAI882.3 geometry=1FMV2/0AAAC2/0AAAC_H length=45.5996 units=m !1ph_basekV=7.22
new line.MV1PMAI124 bus1=BUSMVMAI882.3 bus2=BUSMVMAI944.3 geometry=1FMV2/0AAAC2/0AAAC_H length=15.9651 units=m !1ph_basekV=7.22
new line.MV1PMAI125 bus1=BUSMVMAI883.3 bus2=BUSMVMAI889.3 geometry=1FMV2/0AAAC2/0AAAC_H length=52.5474 units=m !1ph_basekV=7.22
new line.MV1PMAI126 bus1=BUSMVMAI884.3 bus2=BUSMVMAI2183.3 geometry=1FMV2CU_15XLP length=14.6577 units=m !1ph_basekV=7.22
new line.MV1PMAI127 bus1=BUSMVMAI884.3 bus2=BUSMVMAI2184.3 geometry=1FMV2CU_15XLP length=15.8698 units=m !1ph_basekV=7.22
new line.MV3PMAI128 bus1=BUSMVMAI68.1.2.3 bus2=BUSMVMAI71.1.2.3 geometry=3FMV4/0AAAC2/0AAAC_H length=40.7790 units=m !1ph_basekV=7.22
new line.MV1PMAI129 bus1=BUSMVMAI885.1 bus2=BUSMVMAI2182.1 geometry=1FMV2CU_15XLP length=8.2642 units=m !1ph_basekV=7.22
new line.MV1PMAI130 bus1=BUSMVMAI885.1 bus2=BUSMVMAI2185.1 geometry=1FMV2CU_15XLP length=7.1753 units=m !1ph_basekV=7.22
new line.MV1PMAI131 bus1=BUSMVMAI885.1 bus2=BUSMVMAI2186.1 geometry=1FMV2CU_15XLP length=39.5696 units=m !1ph_basekV=7.22
new line.MV1PMAI132 bus1=BUSMVMAI886.3 bus2=BUSMVMAI887.3 geometry=1FMV2/0AAAC2/0AAAC_H length=60.9548 units=m !1ph_basekV=7.22
new line.MV1PMAI133 bus1=BUSMVMAI887.3 bus2=BUSMVMAI892.3 geometry=1FMV2/0AAAC2/0AAAC_H length=38.5250 units=m !1ph_basekV=7.22
new line.MV1PMAI134 bus1=BUSMVMAI888.3 bus2=BUSMVMAI897.3 geometry=1FMV2/0AAAC2/0AAAC_H length=43.0734 units=m !1ph_basekV=7.22
new line.MV1PMAI135 bus1=BUSMVMAI889.3 bus2=BUSMVMAI890.3 geometry=1FMV2/0AAAC2/0AAAC_H length=45.6873 units=m !1ph_basekV=7.22
new line.MV1PMAI136 bus1=BUSMVMAI890.3 bus2=BUSMVMAI891.3 geometry=1FMV2/0AAAC2/0AAAC_H length=51.8680 units=m !1ph_basekV=7.22
new line.MV1PMAI137 bus1=BUSMVMAI891.3 bus2=BUSMVMAI896.3 geometry=1FMV2/0AAAC2/0AAAC_H length=32.1791 units=m !1ph_basekV=7.22
new line.MV1PMAI138 bus1=BUSMVMAI892.3 bus2=BUSMVMAI893.3 geometry=1FMV2/0AAAC2/0AAAC_H length=37.2601 units=m !1ph_basekV=7.22
new line.MV1PMAI139 bus1=BUSMVMAI893.3 bus2=BUSMVMAI894.3 geometry=1FMV2/0AAAC2/0AAAC_H length=42.0361 units=m !1ph_basekV=7.22
new line.MV1PMAI140 bus1=BUSMVMAI894.3 bus2=BUSMVMAI895.3 geometry=1FMV2/0AAAC2/0AAAC_H length=54.9776 units=m !1ph_basekV=7.22
new line.MV1PMAI141 bus1=BUSMVMAI895.3 bus2=BUSMVMAI898.3 geometry=1FMV2/0AAAC2/0AAAC_H length=42.6872 units=m !1ph_basekV=7.22
new line.MV3PMAI142 bus1=BUSMVMAI70.1.2.3 bus2=BUSMVMAI69.1.2.3 geometry=3FMV2/0AAAC2/0AAAC_H length=6.2710 units=m !1ph_basekV=7.22
new line.MV3PMAI143 bus1=BUSMVMAI708.1.2.3 bus2=BUSMVMAI70.1.2.3 geometry=3FMV2CU_15XLP length=11.7348 units=m !1ph_basekV=7.22
new line.MV3PMAI144 bus1=BUSMVMAI71.1.2.3 bus2=BUSMVMAI72.1.2.3 geometry=3FMV4/0AAAC2/0AAAC_H length=53.3630 units=m !1ph_basekV=7.22
new line.MV3PMAI145 bus1=BUSMVMAI72.1.2.3 bus2=BUSMVMAI73.1.2.3 geometry=3FMV4/0AAAC2/0AAAC_H length=49.8179 units=m !1ph_basekV=7.22
new line.MV3PMAI146 bus1=BUSMVMAI72.1.2.3 bus2=BUSMVMAI134.1.2.3 geometry=3FMV1/0AAAC2/0AAAC_H length=34.2879 units=m !1ph_basekV=7.22
new line.MV1PMAI147 bus1=BUSMVMAI897.3 bus2=BUSMVMAI900.3 geometry=1FMV2/0AAAC2/0AAAC_H length=44.4290 units=m !1ph_basekV=7.22
new line.MV1PMAI148 bus1=BUSMVMAI898.3 bus2=BUSMVMAI904.3 geometry=1FMV2/0AAAC2/0AAAC_H length=41.8777 units=m !1ph_basekV=7.22
new line.MV3PMAI149 bus1=BUSMVMAI73.1.2.3 bus2=BUSMVMAI75.1.2.3 geometry=3FMV4/0AAAC2/0AAAC_H length=25.4009 units=m !1ph_basekV=7.22
new line.MV3PMAI150 bus1=BUSMVMAI73.1.2.3 bus2=BUSMVMAI718.1.2.3 geometry=3FMV2CU_15XLP length=1.0001 units=m !1ph_basekV=7.22
new line.MV1PMAI151 bus1=BUSMVMAI900.3 bus2=BUSMVMAI899.3 geometry=1FMV2/0AAAC2/0AAAC_H length=1.0233 units=m !1ph_basekV=7.22
new line.MV1PMAI152 bus1=BUSMVMAI899.3 bus2=BUSMVMAI902.3 geometry=1FMV2/0AAAC2/0AAAC_H length=24.4687 units=m !1ph_basekV=7.22
new line.MV1PMAI153 bus1=BUSMVMAI902.3 bus2=BUSMVMAI901.3 geometry=1FMV2/0AAAC2/0AAAC_H length=22.3152 units=m !1ph_basekV=7.22
new line.MV1PMAI154 bus1=BUSMVMAI901.3 bus2=BUSMVMAI903.3 geometry=1FMV2/0AAAC2/0AAAC_H length=39.7106 units=m !1ph_basekV=7.22
new line.MV1PMAI155 bus1=BUSMVMAI903.3 bus2=BUSMVMAI905.3 geometry=1FMV2/0AAAC2/0AAAC_H length=45.4033 units=m !1ph_basekV=7.22
new line.MV1PMAI156 bus1=BUSMVMAI903.3 bus2=BUSMVMAI907.3 geometry=1FMV2/0AAAC2/0AAAC_H length=38.3477 units=m !1ph_basekV=7.22
new line.MV1PMAI157 bus1=BUSMVMAI905.3 bus2=BUSMVMAI906.3 geometry=1FMV2/0AAAC2/0AAAC_H length=53.4875 units=m !1ph_basekV=7.22
new line.MV1PMAI158 bus1=BUSMVMAI906.3 bus2=BUSMVMAI946.3 geometry=1FMV2/0AAAC2/0AAAC_H length=0.5637 units=m !1ph_basekV=7.22
new line.MV3PMAI159 bus1=BUSMVMAI75.1.2.3 bus2=BUSMVMAI74.1.2.3 geometry=3FMV4/0AAAC2/0AAAC_H length=29.8881 units=m !1ph_basekV=7.22
new line.MV3PMAI160 bus1=BUSMVMAI75.1.2.3 bus2=BUSMVMAI76.1.2.3 geometry=3FMV4/0AAAC2/0AAAC_H length=24.6175 units=m !1ph_basekV=7.22
new line.MV3PMAI161 bus1=BUSMVMAI75.1.2.3 bus2=BUSMVMAI77.1.2.3 geometry=3FMV4/0AAAC2/0AAAC_H length=17.9059 units=m !1ph_basekV=7.22
new line.MV3PMAI162 bus1=BUSMVMAI76.1.2.3 bus2=BUSMVMAI79.1.2.3 geometry=3FMV2/0AAAC2/0AAAC_H length=2.1072 units=m !1ph_basekV=7.22
new line.MV3PMAI163 bus1=BUSMVMAI77.1.2.3 bus2=BUSMVMAI81.1.2.3 geometry=3FMV4/0AAAC2/0AAAC_H length=50.6088 units=m !1ph_basekV=7.22
new line.MV3PMAI164 bus1=BUSMVMAI77.1.2.3 bus2=BUSMVMAI91.1.2.3 geometry=3FMV4/0AAAC2/0AAAC_H length=46.8903 units=m !1ph_basekV=7.22
new line.MV3PMAI165 bus1=BUSMVMAI79.1.2.3 bus2=BUSMVMAI78.1.2.3 geometry=3FMV4/0AAAC2/0AAAC_H length=52.7450 units=m !1ph_basekV=7.22
new line.MV3PMAI166 bus1=BUSMVMAI78.1.2.3 bus2=BUSMVMAI80.1.2.3 geometry=3FMV4/0AAAC2/0AAAC_H length=53.2370 units=m !1ph_basekV=7.22
new line.MV1PMAI167 bus1=BUSMVMAI80.1 bus2=BUSMVMAI908.1 geometry=1FMV2/0AAAC2/0AAAC_H length=36.8559 units=m !1ph_basekV=7.22
new line.MV3PMAI168 bus1=BUSMVMAI80.1.2.3 bus2=BUSMVMAI89.1.2.3 geometry=3FMV4/0AAAC2/0AAAC_H length=40.7569 units=m !1ph_basekV=7.22
new line.MV1PMAI169 bus1=BUSMVMAI907.3 bus2=BUSMVMAI949.3 geometry=1FMV2/0AAAC2/0AAAC_H length=11.9516 units=m !1ph_basekV=7.22
new line.MV3PMAI170 bus1=BUSMVMAI81.1.2.3 bus2=BUSMVMAI82.1.2.3 geometry=3FMV4/0AAAC2/0AAAC_H length=38.2190 units=m !1ph_basekV=7.22
new line.MV3PMAI171 bus1=BUSMVMAI82.1.2.3 bus2=BUSMVMAI83.1.2.3 geometry=3FMV4/0AAAC2/0AAAC_H length=36.9386 units=m !1ph_basekV=7.22
new line.MV3PMAI172 bus1=BUSMVMAI83.1.2.3 bus2=BUSMVMAI86.1.2.3 geometry=3FMV4/0AAAC2/0AAAC_H length=41.5447 units=m !1ph_basekV=7.22
new line.MV3PMAI173 bus1=BUSMVMAI85.1.2.3 bus2=BUSMVMAI84.1.2.3 geometry=3FMV4/0AAAC2/0AAAC_H length=46.4829 units=m !1ph_basekV=7.22
new line.MV3PMAI174 bus1=BUSMVMAI84.1.2.3 bus2=BUSMVMAI93.1.2.3 geometry=3FMV4/0AAAC2/0AAAC_H length=28.5668 units=m !1ph_basekV=7.22
new line.MV1PMAI175 bus1=BUSMVMAI84.2 bus2=BUSMVMAI2198.2 geometry=1FMV2/0CU_15XLP length=2.9858 units=m !1ph_basekV=7.22
new line.MV3PMAI176 bus1=BUSMVMAI709.1.2.3 bus2=BUSMVMAI85.1.2.3 geometry=3FMV2CU_15XLP length=29.1706 units=m !1ph_basekV=7.22
new line.MV3PMAI177 bus1=BUSMVMAI86.1.2.3 bus2=BUSMVMAI88.1.2.3 geometry=3FMV4/0AAAC2/0AAAC_H length=34.5666 units=m !1ph_basekV=7.22
new line.MV3PMAI178 bus1=BUSMVMAI88.1.2.3 bus2=BUSMVMAI87.1.2.3 geometry=3FMV4/0AAAC2/0AAAC_H length=34.9506 units=m !1ph_basekV=7.22
new line.MV3PMAI179 bus1=BUSMVMAI87.1.2.3 bus2=BUSMVMAI99.1.2.3 geometry=3FMV2/0AAAC2/0AAAC_H length=26.1878 units=m !1ph_basekV=7.22
new line.MV3PMAI180 bus1=BUSMVMAI87.1.2.3 bus2=BUSMVMAI722.1.2.3 geometry=3FMV2CU_15XLP length=3.9221 units=m !1ph_basekV=7.22
new line.MV1PMAI181 bus1=BUSMVMAI908.1 bus2=BUSMVMAI909.1 geometry=1FMV2/0AAAC2/0AAAC_H length=43.6835 units=m !1ph_basekV=7.22
new line.MV3PMAI182 bus1=BUSMVMAI89.1.2.3 bus2=BUSMVMAI90.1.2.3 geometry=3FMV4/0AAAC2/0AAAC_H length=46.9961 units=m !1ph_basekV=7.22
new line.MV3PMAI183 bus1=BUSMVMAI90.1.2.3 bus2=BUSMVMAI102.1.2.3 geometry=3FMV4/0AAAC2/0AAAC_H length=55.2089 units=m !1ph_basekV=7.22
new line.MV3PMAI184 bus1=BUSMVMAI91.1.2.3 bus2=BUSMVMAI92.1.2.3 geometry=3FMV4/0AAAC2/0AAAC_H length=40.6092 units=m !1ph_basekV=7.22
new line.MV3PMAI185 bus1=BUSMVMAI91.1.2.3 bus2=BUSMVMAI132.1.2.3 geometry=3FMV2/0AAAC2/0AAAC_H length=28.2807 units=m !1ph_basekV=7.22
new line.MV3PMAI186 bus1=BUSMVMAI92.1.2.3 bus2=BUSMVMAI98.1.2.3 geometry=3FMV2AAAC2/0AAAC_H length=27.3017 units=m !1ph_basekV=7.22
new line.MV3PMAI187 bus1=BUSMVMAI92.1.2.3 bus2=BUSMVMAI100.1.2.3 geometry=3FMV4/0AAAC2/0AAAC_H length=53.1134 units=m !1ph_basekV=7.22
new line.MV3PMAI188 bus1=BUSMVMAI92.1.2.3 bus2=BUSMVMAI723.1.2.3 geometry=3FMV2CU_15XLP length=2.2433 units=m !1ph_basekV=7.22
new line.MV3PMAI189 bus1=BUSMVMAI93.1.2.3 bus2=BUSMVMAI96.1.2.3 geometry=3FMV4/0AAAC2/0AAAC_H length=29.2191 units=m !1ph_basekV=7.22
new line.MV1PMAI190 bus1=BUSMVMAI93.1 bus2=BUSMVMAI916.1 geometry=1FMV2AAAC2/0AAAC_H length=12.2980 units=m !1ph_basekV=7.22
new line.MV3PMAI191 bus1=BUSMVMAI95.1.2.3 bus2=BUSMVMAI94.1.2.3 geometry=3FMV4/0AAAC2/0AAAC_H length=38.5664 units=m !1ph_basekV=7.22
new line.MV3PMAI192 bus1=BUSMVMAI94.1.2.3 bus2=BUSMVMAI112.1.2.3 geometry=3FMV4/0AAAC2/0AAAC_H length=12.6255 units=m !1ph_basekV=7.22
new line.MV3PMAI193 bus1=BUSMVMAI126.1.2.3 bus2=BUSMVMAI95.1.2.3 geometry=3FMV4/0AAAC2/0AAAC_H length=2.0001 units=m !1ph_basekV=7.22
new line.MV3PMAI194 bus1=BUSMVMAI96.1.2.3 bus2=BUSMVMAI97.1.2.3 geometry=3FMV4/0AAAC2/0AAAC_H length=41.6291 units=m !1ph_basekV=7.22
new line.MV3PMAI195 bus1=BUSMVMAI96.1.2.3 bus2=BUSMVMAI711.1.2.3 geometry=3FMV2/0CU_15XLP length=19.1397 units=m !1ph_basekV=7.22
new line.MV1PMAI196 bus1=BUSMVMAI97.1 bus2=BUSMVMAI915.1 geometry=1FMV2AAAC2/0AAAC_H length=13.0551 units=m !1ph_basekV=7.22
new line.MV3PMAI197 bus1=BUSMVMAI97.1.2.3 bus2=BUSMVMAI104.1.2.3 geometry=3FMV4/0AAAC2/0AAAC_H length=50.5539 units=m !1ph_basekV=7.22
new line.MV3PMAI198 bus1=BUSMVMAI98.1.2.3 bus2=BUSMVMAI133.1.2.3 geometry=3FMV1/0AAAC2/0AAAC_H length=9.1840 units=m !1ph_basekV=7.22
new line.MV3PMAI199 bus1=BUSMVMAI98.1.2.3 bus2=BUSMVMAI135.1.2.3 geometry=3FMV1/0AAAC2/0AAAC_H length=19.1772 units=m !1ph_basekV=7.22
...
