test/TEST190523/MAI_Transformers.dss
//Transformadores Monofasicos
new transformer.MAI1P_1 phases=1 windings=3 Xhl=1.80 Xht=1.80 Xlt=1.20 %Rs=[0.50 1.00 1.00] %noloadloss=0.38 %imag=1.40 Buses=[BUSMVMAI864.3.0 BUSLVMAI1.1.0 BUSLVMAI1.0.2] kvs=[7.22 0.12 0.12] kVAs=[75.0 75.0 75.0] conns=[wye wye wye] Taps=[1.00, 1, 1] normhkva=75.0 !GroupMV=1 !GroupLV=1
new transformer.MAI1P_2 phases=1 windings=3 Xhl=1.86 Xht=1.86 Xlt=1.24 %Rs=[0.55 1.10 1.10]  %noloadloss=0.37 %imag=1.00 Buses=[BUSMVMAI22.3.0 BUSLVMAI2.1.0 BUSLVMAI2.0.2] kvs=[7.22 0.12 0.12] kVAs=[50.0 50.0 50.0] conns=[wye wye wye] Taps=[1.00, 1, 1] normhkva=50.0 !GroupMV=1 !GroupLV=2
new transformer.MAI1P_3 phases=1 windings=3 Xhl=2.14 Xht=2.14 Xlt=1.43 %Rs=[0.45 0.90 0.90] %noloadloss=0.36 %imag=1.30 Buses=[BUSMVMAI694.3.0 BUSLVMAI3.1.0 BUSLVMAI3.0.2] kvs=[7.22 0.12 0.12] kVAs=[100.0 100.0 100.0] conns=[wye wye wye] Taps=[1.00, 1, 1] normhkva=100.0 !GroupMV=1 !GroupLV=3
new transformer.MAI1P_4 phases=1 windings=3 Xhl=1.86 Xht=1.86 Xlt=1.24 %Rs=[0.55 1.10 1.10]  %noloadloss=0.37 %imag=1.00 Buses=[BUSMVMAI870.1.0 BUSLVMAI4.1.0 BUSLVMAI4.0.2] kvs=[7.22 0.12 0.12] kVAs=[50.0 50.0 50.0] conns=[wye wye wye] Taps=[1.00, 1, 1] normhkva=50.0 !GroupMV=1 !GroupLV=4
new transformer.MAI1P_5 phases=1 windings=3 Xhl=1.71 Xht=1.71 Xlt=1.14 %Rs=[0.55 1.10 1.10] %noloadloss=0.44 %imag=1.10 Buses=[BUSMVMAI40.2.0 BUSLVMAI5.1.0 BUSLVMAI5.0.2] kvs=[7.22 0.12 0.12] kVAs=[37.5 37.5 37.5] conns=[wye wye wye] Taps=[1.00, 1, 1] normhkva=37.5 !GroupMV=1 !GroupLV=5
new transformer.MAI1P_6 phases=1 windings=3 Xhl=1.80 Xht=1.80 Xlt=1.20 %Rs=[0.50 1.00 1.00] %noloadloss=0.38 %imag=1.40 Buses=[BUSMVMAI36.3.0 BUSLVMAI6.1.0 BUSLVMAI6.0.2] kvs=[7.22 0.12 0.12] kVAs=[75.0 75.0 75.0] conns=[wye wye wye] Taps=[1.00, 1, 1] normhkva=75.0 !GroupMV=1 !GroupLV=6
new transformer.MAI1P_7 phases=1 windings=3 Xhl=1.71 Xht=1.71 Xlt=1.14 %Rs=[0.55 1.10 1.10] %noloadloss=0.44 %imag=1.10 Buses=[BUSMVMAI2176.3.0 BUSLVMAI7.1.0 BUSLVMAI7.0.2] kvs=[7.22 0.12 0.12] kVAs=[37.5 37.5 37.5] conns=[wye wye wye] Taps=[1.00, 1, 1] normhkva=37.5 !GroupMV=1 !GroupLV=7
new transformer.MAI1P_8 phases=1 windings=3 Xhl=1.49 Xht=1.49 Xlt=1.00 %Rs=[0.65 1.30 1.30] %noloadloss=0.47 %imag=1.30 Buses=[BUSMVMAI2177.3.0 BUSLVMAI8.1.0 BUSLVMAI8.0.2] kvs=[7.22 0.12 0.12] kVAs=[25.0 25.0 25.0] conns=[wye wye wye] Taps=[1.00, 1, 1] normhkva=25.0 !GroupMV=1 !GroupLV=8
new transformer.MAI1P_9 phases=1 windings=3 Xhl=1.86 Xht=1.86 Xlt=1.24 %Rs=[0.55 1.10 1.10]  %noloadloss=0.37 %imag=1.00 Buses=[BUSMVMAI699.3.0 BUSLVMAI9.1.0 BUSLVMAI9.0.2] kvs=[7.22 0.12 0.12] kVAs=[50.0 50.0 50.0] conns=[wye wye wye] Taps=[1.00, 1, 1] normhkva=50.0 !GroupMV=1 !GroupLV=9
new transformer.MAI1P_10 phases=1 windings=3 Xhl=1.86 Xht=1.86 Xlt=1.24 %Rs=[0.55 1.10 1.10]  %noloadloss=0.37 %imag=1.00 Buses=[BUSMVMAI700.3.0 BUSLVMAI10.1.0 BUSLVMAI10.0.2] kvs=[7.22 0.12 0.12] kVAs=[50.0 50.0 50.0] conns=[wye wye wye] Taps=[1.00, 1, 1] normhkva=50.0 !GroupMV=1 !GroupLV=10
new transformer.MAI1P_11 phases=1 windings=3 Xhl=1.86 Xht=1.86 Xlt=1.24 %Rs=[0.55 1.10 1.10]  %noloadloss=0.37 %imag=1.00 Buses=[BUSMVMAI2173.2.0 BUSLVMAI11.1.0 BUSLVMAI11.0.2] kvs=[7.22 0.12 0.12] kVAs=[50.0 50.0 50.0] conns=[wye wye wye] Taps=[1.00, 1, 1] normhkva=50.0 !GroupMV=1 !GroupLV=11
new transformer.MAI1P_12 phases=1 windings=3 Xhl=1.80 Xht=1.80 Xlt=1.20 %Rs=[0.50 1.00 1.00] %noloadloss=0.38 %imag=1.40 Buses=[BUSMVMAI2175.2.0 BUSLVMAI12.1.0 BUSLVMAI12.0.2] kvs=[7.22 0.12 0.12] kVAs=[75.0 75.0 75.0] conns=[wye wye wye] Taps=[1.00, 1, 1] normhkva=75.0 !GroupMV=1 !GroupLV=12
new transformer.MAI1P_13 phases=1 windings=3 Xhl=1.80 Xht=1.80 Xlt=1.20 %Rs=[0.50 1.00 1.00] %noloadloss=0.38 %imag=1.40 Buses=[BUSMVMAI2172.1.0 BUSLVMAI13.1.0 BUSLVMAI13.0.2] kvs=[7.22 0.12 0.12] kVAs=[75.0 75.0 75.0] conns=[wye wye wye] Taps=[1.00, 1, 1] normhkva=75.0 !GroupMV=1 !GroupLV=13
new transformer.MAI1P_14 phases=1 windings=3 Xhl=1.80 Xht=1.80 Xlt=1.20 %Rs=[0.50 1.00 1.00] %noloadloss=0.38 %imag=1.40 Buses=[BUSMVMAI2181.1.0 BUSLVMAI14.1.0 BUSLVMAI14.0.2] kvs=[7.22 0.12 0.12] kVAs=[75.0 75.0 75.0] conns=[wye wye wye] Taps=[1.00, 1, 1] normhkva=75.0 !GroupMV=1 !GroupLV=14
new transformer.MAI1P_15 phases=1 windings=3 Xhl=1.86 Xht=1.86 Xlt=1.24 %Rs=[0.55 1.10 1.10]  %noloadloss=0.37 %imag=1.00 Buses=[BUSMVMAI2171.1.0 BUSLVMAI15.1.0 BUSLVMAI15.0.2] kvs=[7.22 0.12 0.12] kVAs=[50.0 50.0 50.0] conns=[wye wye wye] Taps=[1.00, 1, 1] normhkva=50.0 !GroupMV=1 !GroupLV=15
new transformer.MAI1P_16 phases=1 windings=3 Xhl=1.19 Xht=1.19 Xlt=0.80 %Rs=[0.75 1.50 1.50] %noloadloss=0.56 %imag=1.40 Buses=[BUSMVMAI2165.3.0 BUSLVMAI16.1.0 BUSLVMAI16.0.2] kvs=[7.22 0.12 0.12] kVAs=[15.0 15.0 15.0] conns=[wye wye wye] Taps=[1.00, 1, 1] normhkva=15.0 !GroupMV=1 !GroupLV=16
new transformer.MAI1P_17 phases=1 windings=3 Xhl=1.49 Xht=1.49 Xlt=1.00 %Rs=[0.65 1.30 1.30] %noloadloss=0.47 %imag=1.30 Buses=[BUSMVMAI32.3.0 BUSLVMAI17.1.0 BUSLVMAI17.0.2] kvs=[7.22 0.12 0.12] kVAs=[25.0 25.0 25.0] conns=[wye wye wye] Taps=[1.00, 1, 1] normhkva=25.0 !GroupMV=1 !GroupLV=17
new transformer.MAI1P_18 phases=1 windings=3 Xhl=1.80 Xht=1.80 Xlt=1.20 %Rs=[0.50 1.00 1.00] %noloadloss=0.38 %imag=1.40 Buses=[BUSMVMAI696.3.0 BUSLVMAI18.1.0 BUSLVMAI18.0.2] kvs=[7.22 0.12 0.12] kVAs=[75.0 75.0 75.0] conns=[wye wye wye] Taps=[1.00, 1, 1] normhkva=75.0 !GroupMV=1 !GroupLV=18
new transformer.MAI1P_19 phases=1 windings=3 Xhl=1.86 Xht=1.86 Xlt=1.24 %Rs=[0.55 1.10 1.10]  %noloadloss=0.37 %imag=1.00 Buses=[BUSMVMAI695.3.0 BUSLVMAI19.1.0 BUSLVMAI19.0.2] kvs=[7.22 0.12 0.12] kVAs=[50.0 50.0 50.0] conns=[wye wye wye] Taps=[1.00, 1, 1] normhkva=50.0 !GroupMV=1 !GroupLV=19
new transformer.MAI1P_20 phases=1 windings=3 Xhl=1.19 Xht=1.19 Xlt=0.80 %Rs=[0.75 1.50 1.50] %noloadloss=0.56 %imag=1.40 Buses=[BUSMVMAI11.2.0 BUSLVMAI20.1.0 BUSLVMAI20.0.2] kvs=[7.22 0.12 0.12] kVAs=[15.0 15.0 15.0] conns=[wye wye wye] Taps=[1.00, 1, 1] normhkva=15.0 !GroupMV=1 !GroupLV=20
new transformer.MAI1P_21 phases=1 windings=3 Xhl=1.80 Xht=1.80 Xlt=1.20 %Rs=[0.50 1.00 1.00] %noloadloss=0.38 %imag=1.40 Buses=[BUSMVMAI863.3.0 BUSLVMAI21.1.0 BUSLVMAI21.0.2] kvs=[7.22 0.12 0.12] kVAs=[75.0 75.0 75.0] conns=[wye wye wye] Taps=[1.00, 1, 1] normhkva=75.0 !GroupMV=1 !GroupLV=21
new transformer.MAI1P_22 phases=1 windings=3 Xhl=1.71 Xht=1.71 Xlt=1.14 %Rs=[0.55 1.10 1.10] %noloadloss=0.44 %imag=1.10 Buses=[BUSMVMAI34.1.0 BUSLVMAI22.1.0 BUSLVMAI22.0.2] kvs=[7.22 0.12 0.12] kVAs=[37.5 37.5 37.5] conns=[wye wye wye] Taps=[1.00, 1, 1] normhkva=37.5 !GroupMV=1 !GroupLV=22
new transformer.MAI1P_23 phases=1 windings=3 Xhl=1.80 Xht=1.80 Xlt=1.20 %Rs=[0.50 1.00 1.00] %noloadloss=0.38 %imag=1.40 Buses=[BUSMVMAI2179.3.0 BUSLVMAI23.1.0 BUSLVMAI23.0.2] kvs=[7.22 0.12 0.12] kVAs=[75.0 75.0 75.0] conns=[wye wye wye] Taps=[1.00, 1, 1] normhkva=75.0 !GroupMV=1 !GroupLV=23
new transformer.MAI1P_24 phases=1 windings=3 Xhl=1.80 Xht=1.80 Xlt=1.20 %Rs=[0.50 1.00 1.00] %noloadloss=0.38 %imag=1.40 Buses=[BUSMVMAI2180.3.0 BUSLVMAI24.1.0 BUSLVMAI24.0.2] kvs=[7.22 0.12 0.12] kVAs=[75.0 75.0 75.0] conns=[wye wye wye] Taps=[1.00, 1, 1] normhkva=75.0 !GroupMV=1 !GroupLV=24
new transformer.MAI1P_25 phases=1 windings=3 Xhl=1.80 Xht=1.80 Xlt=1.20 %Rs=[0.50 1.00 1.00] %noloadloss=0.38 %imag=1.40 Buses=[BUSMVMAI2178.3.0 BUSLVMAI25.1.0 BUSLVMAI25.0.2] kvs=[7.22 0.12 0.12] kVAs=[75.0 75.0 75.0] conns=[wye wye wye] Taps=[1.00, 1, 1] normhkva=75.0 !GroupMV=1 !GroupLV=25
new transformer.MAI1P_26 phases=1 windings=3 Xhl=1.80 Xht=1.80 Xlt=1.20 %Rs=[0.50 1.00 1.00] %noloadloss=0.38 %imag=1.40 Buses=[BUSMVMAI2174.2.0 BUSLVMAI26.1.0 BUSLVMAI26.0.2] kvs=[7.22 0.12 0.12] kVAs=[75.0 75.0 75.0] conns=[wye wye wye] Taps=[1.00, 1, 1] normhkva=75.0 !GroupMV=1 !GroupLV=26
new transformer.MAI1P_27 phases=1 windings=3 Xhl=1.49 Xht=1.49 Xlt=1.00 %Rs=[0.65 1.30 1.30] %noloadloss=0.47 %imag=1.30 Buses=[BUSMVMAI14.2.0 BUSLVMAI27.1.0 BUSLVMAI27.0.2] kvs=[7.22 0.12 0.12] kVAs=[25.0 25.0 25.0] conns=[wye wye wye] Taps=[1.00, 1, 1] normhkva=25.0 !GroupMV=1 !GroupLV=27
new transformer.MAI1P_28 phases=1 windings=3 Xhl=1.80 Xht=1.80 Xlt=1.20 %Rs=[0.50 1.00 1.00] %noloadloss=0.38 %imag=1.40 Buses=[BUSMVMAI21.3.0 BUSLVMAI28.1.0 BUSLVMAI28.0.2] kvs=[7.22 0.12 0.12] kVAs=[75.0 75.0 75.0] conns=[wye wye wye] Taps=[1.00, 1, 1] normhkva=75.0 !GroupMV=1 !GroupLV=28
new transformer.MAI1P_29 phases=1 windings=3 Xhl=1.80 Xht=1.80 Xlt=1.20 %Rs=[0.50 1.00 1.00] %noloadloss=0.38 %imag=1.40 Buses=[BUSMVMAI701.3.0 BUSLVMAI29.1.0 BUSLVMAI29.0.2] kvs=[7.22 0.12 0.12] kVAs=[75.0 75.0 75.0] conns=[wye wye wye] Taps=[1.00, 1, 1] normhkva=75.0 !GroupMV=1 !GroupLV=29
new transformer.MAI1P_30 phases=1 windings=3 Xhl=1.71 Xht=1.71 Xlt=1.14 %Rs=[0.55 1.10 1.10] %noloadloss=0.44 %imag=1.10 Buses=[BUSMVMAI871.2.0 BUSLVMAI30.1.0 BUSLVMAI30.0.2] kvs=[7.22 0.12 0.12] kVAs=[37.5 37.5 37.5] conns=[wye wye wye] Taps=[1.00, 1, 1] normhkva=37.5 !GroupMV=1 !GroupLV=30
new transformer.MAI1P_31 phases=1 windings=3 Xhl=1.80 Xht=1.80 Xlt=1.20 %Rs=[0.50 1.00 1.00] %noloadloss=0.38 %imag=1.40 Buses=[BUSMVMAI7.3.0 BUSLVMAI31.1.0 BUSLVMAI31.0.2] kvs=[7.22 0.12 0.12] kVAs=[75.0 75.0 75.0] conns=[wye wye wye] Taps=[1.00, 1, 1] normhkva=75.0 !GroupMV=1 !GroupLV=31
new transformer.MAI1P_32 phases=1 windings=3 Xhl=1.86 Xht=1.86 Xlt=1.24 %Rs=[0.55 1.10 1.10]  %noloadloss=0.37 %imag=1.00 Buses=[BUSMVMAI18.1.0 BUSLVMAI32.1.0 BUSLVMAI32.0.2] kvs=[7.22 0.12 0.12] kVAs=[50.0 50.0 50.0] conns=[wye wye wye] Taps=[1.00, 1, 1] normhkva=50.0 !GroupMV=1 !GroupLV=32
new transformer.MAI1P_33 phases=1 windings=3 Xhl=1.86 Xht=1.86 Xlt=1.24 %Rs=[0.55 1.10 1.10]  %noloadloss=0.37 %imag=1.00 Buses=[BUSMVMAI702.3.0 BUSLVMAI33.1.0 BUSLVMAI33.0.2] kvs=[7.22 0.12 0.12] kVAs=[50.0 50.0 50.0] conns=[wye wye wye] Taps=[1.00, 1, 1] normhkva=50.0 !GroupMV=1 !GroupLV=33
new transformer.MAI1P_34 phases=1 windings=3 Xhl=1.49 Xht=1.49 Xlt=1.00 %Rs=[0.65 1.30 1.30] %noloadloss=0.47 %imag=1.30 Buses=[BUSMVMAI72.3.0 BUSLVMAI34.1.0 BUSLVMAI34.0.2] kvs=[7.22 0.12 0.12] kVAs=[25.0 25.0 25.0] conns=[wye wye wye] Taps=[1.00, 1, 1] normhkva=25.0 !GroupMV=1 !GroupLV=34
new transformer.MAI1P_35 phases=1 windings=3 Xhl=1.71 Xht=1.71 Xlt=1.14 %Rs=[0.55 1.10 1.10] %noloadloss=0.44 %imag=1.10 Buses=[BUSMVMAI899.3.0 BUSLVMAI35.1.0 BUSLVMAI35.0.2] kvs=[7.22 0.12 0.12] kVAs=[37.5 37.5 37.5] conns=[wye wye wye] Taps=[1.00, 1, 1] normhkva=37.5 !GroupMV=1 !GroupLV=35
new transformer.MAI1P_36 phases=1 windings=3 Xhl=1.71 Xht=1.71 Xlt=1.14 %Rs=[0.55 1.10 1.10] %noloadloss=0.44 %imag=1.10 Buses=[BUSMVMAI907.3.0 BUSLVMAI36.1.0 BUSLVMAI36.0.2] kvs=[7.22 0.12 0.12] kVAs=[37.5 37.5 37.5] conns=[wye wye wye] Taps=[1.00, 1, 1] normhkva=37.5 !GroupMV=1 !GroupLV=36
new transformer.MAI1P_37 phases=1 windings=3 Xhl=1.80 Xht=1.80 Xlt=1.20 %Rs=[0.50 1.00 1.00] %noloadloss=0.38 %imag=1.40 Buses=[BUSMVMAI2183.3.0 BUSLVMAI37.1.0 BUSLVMAI37.0.2] kvs=[7.22 0.12 0.12] kVAs=[75.0 75.0 75.0] conns=[wye wye wye] Taps=[1.00, 1, 1] normhkva=75.0 !GroupMV=1 !GroupLV=37
new transformer.MAI1P_38 phases=1 windings=3 Xhl=1.19 Xht=1.19 Xlt=0.80 %Rs=[0.75 1.50 1.50] %noloadloss=0.56 %imag=1.40 Buses=[BUSMVMAI94.2.0 BUSLVMAI38.1.0 BUSLVMAI38.0.2] kvs=[7.22 0.12 0.12] kVAs=[15.0 15.0 15.0] conns=[wye wye wye] Taps=[1.00, 1, 1] normhkva=15.0 !GroupMV=1 !GroupLV=38
new transformer.MAI1P_39 phases=1 windings=3 Xhl=1.86 Xht=1.86 Xlt=1.24 %Rs=[0.55 1.10 1.10]  %noloadloss=0.37 %imag=1.00 Buses=[BUSMVMAI932.2.0 BUSLVMAI39.1.0 BUSLVMAI39.0.2] kvs=[7.22 0.12 0.12] kVAs=[50.0 50.0 50.0] conns=[wye wye wye] Taps=[1.00, 1, 1] normhkva=50.0 !GroupMV=1 !GroupLV=39
new transformer.MAI1P_40 phases=1 windings=3 Xhl=1.86 Xht=1.86 Xlt=1.24 %Rs=[0.55 1.10 1.10]  %noloadloss=0.37 %imag=1.00 Buses=[BUSMVMAI890.3.0 BUSLVMAI40.1.0 BUSLVMAI40.0.2] kvs=[7.22 0.12 0.12] kVAs=[50.0 50.0 50.0] conns=[wye wye wye] Taps=[1.00, 1, 1] normhkva=50.0 !GroupMV=1 !GroupLV=40
new transformer.MAI1P_41 phases=1 windings=3 Xhl=1.80 Xht=1.80 Xlt=1.20 %Rs=[0.50 1.00 1.00] %noloadloss=0.38 %imag=1.40 Buses=[BUSMVMAI86.1.0 BUSLVMAI41.1.0 BUSLVMAI41.0.2] kvs=[7.22 0.12 0.12] kVAs=[75.0 75.0 75.0] conns=[wye wye wye] Taps=[1.00, 1, 1] normhkva=75.0 !GroupMV=1 !GroupLV=41
new transformer.MAI1P_42 phases=1 windings=3 Xhl=1.80 Xht=1.80 Xlt=1.20 %Rs=[0.50 1.00 1.00] %noloadloss=0.38 %imag=1.40 Buses=[BUSMVMAI2192.1.0 BUSLVMAI42.1.0 BUSLVMAI42.0.2] kvs=[7.22 0.12 0.12] kVAs=[75.0 75.0 75.0] conns=[wye wye wye] Taps=[1.00, 1, 1] normhkva=75.0 !GroupMV=1 !GroupLV=42
new transformer.MAI1P_43 phases=1 windings=3 Xhl=1.80 Xht=1.80 Xlt=1.20 %Rs=[0.50 1.00 1.00] %noloadloss=0.38 %imag=1.40 Buses=[BUSMVMAI2191.1.0 BUSLVMAI43.1.0 BUSLVMAI43.0.2] kvs=[7.22 0.12 0.12] kVAs=[75.0 75.0 75.0] conns=[wye wye wye] Taps=[1.00, 1, 1] normhkva=75.0 !GroupMV=1 !GroupLV=43
new transformer.MAI1P_44 phases=1 windings=3 Xhl=1.80 Xht=1.80 Xlt=1.20 %Rs=[0.50 1.00 1.00] %noloadloss=0.38 %imag=1.40 Buses=[BUSMVMAI715.3.0 BUSLVMAI44.1.0 BUSLVMAI44.0.2] kvs=[7.22 0.12 0.12] kVAs=[75.0 75.0 75.0] conns=[wye wye wye] Taps=[1.00, 1, 1] normhkva=75.0 !GroupMV=1 !GroupLV=44
new transformer.MAI1P_45 phases=1 windings=3 Xhl=1.71 Xht=1.71 Xlt=1.14 %Rs=[0.55 1.10 1.10] %noloadloss=0.44 %imag=1.10 Buses=[BUSMVMAI69.3.0 BUSLVMAI45.1.0 BUSLVMAI45.0.2] kvs=[7.22 0.12 0.12] kVAs=[37.5 37.5 37.5] conns=[wye wye wye] Taps=[1.00, 1, 1] normhkva=37.5 !GroupMV=1 !GroupLV=45
new transformer.MAI1P_46 phases=1 windings=3 Xhl=1.80 Xht=1.80 Xlt=1.20 %Rs=[0.50 1.00 1.00] %noloadloss=0.38 %imag=1.40 Buses=[BUSMVMAI712.3.0 BUSLVMAI46.1.0 BUSLVMAI46.0.2] kvs=[7.22 0.12 0.12] kVAs=[75.0 75.0 75.0] conns=[wye wye wye] Taps=[1.00, 1, 1] normhkva=75.0 !GroupMV=1 !GroupLV=46
new transformer.MAI1P_47 phases=1 windings=3 Xhl=1.71 Xht=1.71 Xlt=1.14 %Rs=[0.55 1.10 1.10] %noloadloss=0.44 %imag=1.10 Buses=[BUSMVMAI881.3.0 BUSLVMAI47.1.0 BUSLVMAI47.0.2] kvs=[7.22 0.12 0.12] kVAs=[37.5 37.5 37.5] conns=[wye wye wye] Taps=[1.00, 1, 1] normhkva=37.5 !GroupMV=1 !GroupLV=47
new transformer.MAI1P_48 phases=1 windings=3 Xhl=1.71 Xht=1.71 Xlt=1.14 %Rs=[0.55 1.10 1.10] %noloadloss=0.44 %imag=1.10 Buses=[BUSMVMAI883.3.0 BUSLVMAI48.1.0 BUSLVMAI48.0.2] kvs=[7.22 0.12 0.12] kVAs=[37.5 37.5 37.5] conns=[wye wye wye] Taps=[1.00, 1, 1] normhkva=37.5 !GroupMV=1 !GroupLV=48
new transformer.MAI1P_49 phases=1 windings=3 Xhl=1.80 Xht=1.80 Xlt=1.20 %Rs=[0.50 1.00 1.00] %noloadloss=0.38 %imag=1.40 Buses=[BUSMVMAI947.1.0 BUSLVMAI49.1.0 BUSLVMAI49.0.2] kvs=[7.22 0.12 0.12] kVAs=[75.0 75.0 75.0] conns=[wye wye wye] Taps=[1.00, 1, 1] normhkva=75.0 !GroupMV=1 !GroupLV=49
new transformer.MAI1P_50 phases=1 windings=3 Xhl=1.49 Xht=1.49 Xlt=1.00 %Rs=[0.65 1.30 1.30] %noloadloss=0.47 %imag=1.30 Buses=[BUSMVMAI82.2.0 BUSLVMAI50.1.0 BUSLVMAI50.0.2] kvs=[7.22 0.12 0.12] kVAs=[25.0 25.0 25.0] conns=[wye wye wye] Taps=[1.00, 1, 1] normhkva=25.0 !GroupMV=1 !GroupLV=50
new transformer.MAI1P_51 phases=1 windings=3 Xhl=1.49 Xht=1.49 Xlt=1.00 %Rs=[0.65 1.30 1.30] %noloadloss=0.47 %imag=1.30 Buses=[BUSMVMAI927.1.0 BUSLVMAI51.1.0 BUSLVMAI51.0.2] kvs=[7.22 0.12 0.12] kVAs=[25.0 25.0 25.0] conns=[wye wye wye] Taps=[1.00, 1, 1] normhkva=25.0 !GroupMV=1 !GroupLV=51
new transformer.MAI1P_52 phases=1 windings=3 Xhl=1.86 Xht=1.86 Xlt=1.24 %Rs=[0.55 1.10 1.10]  %noloadloss=0.37 %imag=1.00 Buses=[BUSMVMAI872.3.0 BUSLVMAI52.1.0 BUSLVMAI52.0.2] kvs=[7.22 0.12 0.12] kVAs=[50.0 50.0 50.0] conns=[wye wye wye] Taps=[1.00, 1, 1] normhkva=50.0 !GroupMV=1 !GroupLV=52
new transformer.MAI1P_53 phases=1 windings=3 Xhl=1.80 Xht=1.80 Xlt=1.20 %Rs=[0.50 1.00 1.00] %noloadloss=0.38 %imag=1.40 Buses=[BUSMVMAI900.3.0 BUSLVMAI53.1.0 BUSLVMAI53.0.2] kvs=[7.22 0.12 0.12] kVAs=[75.0 75.0 75.0] conns=[wye wye wye] Taps=[1.00, 1, 1] normhkva=75.0 !GroupMV=1 !GroupLV=53
new transformer.MAI1P_54 phases=1 windings=3 Xhl=1.49 Xht=1.49 Xlt=1.00 %Rs=[0.65 1.30 1.30] %noloadloss=0.47 %imag=1.30 Buses=[BUSMVMAI905.3.0 BUSLVMAI54.1.0 BUSLVMAI54.0.2] kvs=[7.22 0.12 0.12] kVAs=[25.0 25.0 25.0] conns=[wye wye wye] Taps=[1.00, 1, 1] normhkva=25.0 !GroupMV=1 !GroupLV=54
new transformer.MAI1P_55 phases=1 windings=3 Xhl=1.80 Xht=1.80 Xlt=1.20 %Rs=[0.50 1.00 1.00] %noloadloss=0.38 %imag=1.40 Buses=[BUSMVMAI2190.1.0 BUSLVMAI55.1.0 BUSLVMAI55.0.2] kvs=[7.22 0.12 0.12] kVAs=[75.0 75.0 75.0] conns=[wye wye wye] Taps=[1.00, 1, 1] normhkva=75.0 !GroupMV=1 !GroupLV=55
new transformer.MAI1P_56 phases=1 windings=3 Xhl=1.86 Xht=1.86 Xlt=1.24 %Rs=[0.55 1.10 1.10]  %noloadloss=0.37 %imag=1.00 Buses=[BUSMVMAI936.3.0 BUSLVMAI56.1.0 BUSLVMAI56.0.2] kvs=[7.22 0.12 0.12] kVAs=[50.0 50.0 50.0] conns=[wye wye wye] Taps=[1.00, 1, 1] normhkva=50.0 !GroupMV=1 !GroupLV=56
new transformer.MAI1P_57 phases=1 windings=3 Xhl=1.80 Xht=1.80 Xlt=1.20 %Rs=[0.50 1.00 1.00] %noloadloss=0.38 %imag=1.40 Buses=[BUSMVMAI713.3.0 BUSLVMAI57.1.0 BUSLVMAI57.0.2] kvs=[7.22 0.12 0.12] kVAs=[75.0 75.0 75.0] conns=[wye wye wye] Taps=[1.00, 1, 1] normhkva=75.0 !GroupMV=1 !GroupLV=57
new transformer.MAI1P_58 phases=1 windings=3 Xhl=1.71 Xht=1.71 Xlt=1.14 %Rs=[0.55 1.10 1.10] %noloadloss=0.44 %imag=1.10 Buses=[BUSMVMAI880.3.0 BUSLVMAI58.1.0 BUSLVMAI58.0.2] kvs=[7.22 0.12 0.12] kVAs=[37.5 37.5 37.5] conns=[wye wye wye] Taps=[1.00, 1, 1] normhkva=37.5 !GroupMV=1 !GroupLV=58
new transformer.MAI1P_59 phases=1 windings=3 Xhl=1.80 Xht=1.80 Xlt=1.20 %Rs=[0.50 1.00 1.00] %noloadloss=0.38 %imag=1.40 Buses=[BUSMVMAI916.1.0 BUSLVMAI59.1.0 BUSLVMAI59.0.2] kvs=[7.22 0.12 0.12] kVAs=[75.0 75.0 75.0] conns=[wye wye wye] Taps=[1.00, 1, 1] normhkva=75.0 !GroupMV=1 !GroupLV=59
new transformer.MAI1P_60 phases=1 windings=3 Xhl=1.86 Xht=1.86 Xlt=1.24 %Rs=[0.55 1.10 1.10]  %noloadloss=0.37 %imag=1.00 Buses=[BUSMVMAI2189.1.0 BUSLVMAI60.1.0 BUSLVMAI60.0.2] kvs=[7.22 0.12 0.12] kVAs=[50.0 50.0 50.0] conns=[wye wye wye] Taps=[1.00, 1, 1] normhkva=50.0 !GroupMV=1 !GroupLV=60
new transformer.MAI1P_61 phases=1 windings=3 Xhl=1.71 Xht=1.71 Xlt=1.14 %Rs=[0.55 1.10 1.10] %noloadloss=0.44 %imag=1.10 Buses=[BUSMVMAI61.1.0 BUSLVMAI61.1.0 BUSLVMAI61.0.2] kvs=[7.22 0.12 0.12] kVAs=[37.5 37.5 37.5] conns=[wye wye wye] Taps=[1.00, 1, 1] normhkva=37.5 !GroupMV=1 !GroupLV=61
new transformer.MAI1P_62 phases=1 windings=3 Xhl=1.71 Xht=1.71 Xlt=1.14 %Rs=[0.55 1.10 1.10] %noloadloss=0.44 %imag=1.10 Buses=[BUSMVMAI103.2.0 BUSLVMAI62.1.0 BUSLVMAI62.0.2] kvs=[7.22 0.12 0.12] kVAs=[37.5 37.5 37.5] conns=[wye wye wye] Taps=[1.00, 1, 1] normhkva=37.5 !GroupMV=1 !GroupLV=62
new transformer.MAI1P_63 phases=1 windings=3 Xhl=1.80 Xht=1.80 Xlt=1.20 %Rs=[0.50 1.00 1.00] %noloadloss=0.38 %imag=1.40 Buses=[BUSMVMAI64.1.0 BUSLVMAI63.1.0 BUSLVMAI63.0.2] kvs=[7.22 0.12 0.12] kVAs=[75.0 75.0 75.0] conns=[wye wye wye] Taps=[1.00, 1, 1] normhkva=75.0 !GroupMV=1 !GroupLV=63
new transformer.MAI1P_64 phases=1 windings=3 Xhl=1.86 Xht=1.86 Xlt=1.24 %Rs=[0.55 1.10 1.10]  %noloadloss=0.37 %imag=1.00 Buses=[BUSMVMAI935.2.0 BUSLVMAI64.1.0 BUSLVMAI64.0.2] kvs=[7.22 0.12 0.12] kVAs=[50.0 50.0 50.0] conns=[wye wye wye] Taps=[1.00, 1, 1] normhkva=50.0 !GroupMV=1 !GroupLV=64
new transformer.MAI1P_65 phases=1 windings=3 Xhl=1.71 Xht=1.71 Xlt=1.14 %Rs=[0.55 1.10 1.10] %noloadloss=0.44 %imag=1.10 Buses=[BUSMVMAI929.1.0 BUSLVMAI65.1.0 BUSLVMAI65.0.2] kvs=[7.22 0.12 0.12] kVAs=[37.5 37.5 37.5] conns=[wye wye wye] Taps=[1.00, 1, 1] normhkva=37.5 !GroupMV=1 !GroupLV=65
new transformer.MAI1P_66 phases=1 windings=3 Xhl=1.71 Xht=1.71 Xlt=1.14 %Rs=[0.55 1.10 1.10] %noloadloss=0.44 %imag=1.10 Buses=[BUSMVMAI901.3.0 BUSLVMAI66.1.0 BUSLVMAI66.0.2] kvs=[7.22 0.12 0.12] kVAs=[37.5 37.5 37.5] conns=[wye wye wye] Taps=[1.00, 1, 1] normhkva=37.5 !GroupMV=1 !GroupLV=66
new transformer.MAI1P_67 phases=1 windings=3 Xhl=1.49 Xht=1.49 Xlt=1.00 %Rs=[0.65 1.30 1.30] %noloadloss=0.47 %imag=1.30 Buses=[BUSMVMAI908.1.0 BUSLVMAI67.1.0 BUSLVMAI67.0.2] kvs=[7.22 0.12 0.12] kVAs=[25.0 25.0 25.0] conns=[wye wye wye] Taps=[1.00, 1, 1] normhkva=25.0 !GroupMV=1 !GroupLV=67
new transformer.MAI1P_68 phases=1 windings=3 Xhl=1.86 Xht=1.86 Xlt=1.24 %Rs=[0.55 1.10 1.10]  %noloadloss=0.37 %imag=1.00 Buses=[BUSMVMAI89.1.0 BUSLVMAI68.1.0 BUSLVMAI68.0.2] kvs=[7.22 0.12 0.12] kVAs=[50.0 50.0 50.0] conns=[wye wye wye] Taps=[1.00, 1, 1] normhkva=50.0 !GroupMV=1 !GroupLV=68
new transformer.MAI1P_69 phases=1 windings=3 Xhl=1.86 Xht=1.86 Xlt=1.24 %Rs=[0.55 1.10 1.10]  %noloadloss=0.37 %imag=1.00 Buses=[BUSMVMAI897.3.0 BUSLVMAI69.1.0 BUSLVMAI69.0.2] kvs=[7.22 0.12 0.12] kVAs=[50.0 50.0 50.0] conns=[wye wye wye] Taps=[1.00, 1, 1] normhkva=50.0 !GroupMV=1 !GroupLV=69
new transformer.MAI1P_70 phases=1 windings=3 Xhl=1.71 Xht=1.71 Xlt=1.14 %Rs=[0.55 1.10 1.10] %noloadloss=0.44 %imag=1.10 Buses=[BUSMVMAI896.3.0 BUSLVMAI70.1.0 BUSLVMAI70.0.2] kvs=[7.22 0.12 0.12] kVAs=[37.5 37.5 37.5] conns=[wye wye wye] Taps=[1.00, 1, 1] normhkva=37.5 !GroupMV=1 !GroupLV=70
new transformer.MAI1P_71 phases=1 windings=3 Xhl=1.71 Xht=1.71 Xlt=1.14 %Rs=[0.55 1.10 1.10] %noloadloss=0.44 %imag=1.10 Buses=[BUSMVMAI931.1.0 BUSLVMAI71.1.0 BUSLVMAI71.0.2] kvs=[7.22 0.12 0.12] kVAs=[37.5 37.5 37.5] conns=[wye wye wye] Taps=[1.00, 1, 1] normhkva=37.5 !GroupMV=1 !GroupLV=71
new transformer.MAI1P_72 phases=1 windings=3 Xhl=1.86 Xht=1.86 Xlt=1.24 %Rs=[0.55 1.10 1.10]  %noloadloss=0.37 %imag=1.00 Buses=[BUSMVMAI2197.1.0 BUSLVMAI72.1.0 BUSLVMAI72.0.2] kvs=[7.22 0.12 0.12] kVAs=[50.0 50.0 50.0] conns=[wye wye wye] Taps=[1.00, 1, 1] normhkva=50.0 !GroupMV=1 !GroupLV=72
new transformer.MAI1P_73 phases=1 windings=3 Xhl=1.86 Xht=1.86 Xlt=1.24 %Rs=[0.55 1.10 1.10]  %noloadloss=0.37 %imag=1.00 Buses=[BUSMVMAI920.1.0 BUSLVMAI73.1.0 BUSLVMAI73.0.2] kvs=[7.22 0.12 0.12] kVAs=[50.0 50.0 50.0] conns=[wye wye wye] Taps=[1.00, 1, 1] normhkva=50.0 !GroupMV=1 !GroupLV=73
new transformer.MAI1P_74 phases=1 windings=3 Xhl=1.80 Xht=1.80 Xlt=1.20 %Rs=[0.50 1.00 1.00] %noloadloss=0.38 %imag=1.40 Buses=[BUSMVMAI915.1.0 BUSLVMAI74.1.0 BUSLVMAI74.0.2] kvs=[7.22 0.12 0.12] kVAs=[75.0 75.0 75.0] conns=[wye wye wye] Taps=[1.00, 1, 1] normhkva=75.0 !GroupMV=1 !GroupLV=74
new transformer.MAI1P_75 phases=1 windings=3 Xhl=1.71 Xht=1.71 Xlt=1.14 %Rs=[0.55 1.10 1.10] %noloadloss=0.44 %imag=1.10 Buses=[BUSMVMAI925.2.0 BUSLVMAI75.1.0 BUSLVMAI75.0.2] kvs=[7.22 0.12 0.12] kVAs=[37.5 37.5 37.5] conns=[wye wye wye] Taps=[1.00, 1, 1] normhkva=37.5 !GroupMV=1 !GroupLV=75
new transformer.MAI1P_76 phases=1 windings=3 Xhl=1.86 Xht=1.86 Xlt=1.24 %Rs=[0.55 1.10 1.10]  %noloadloss=0.37 %imag=1.00 Buses=[BUSMVMAI946.3.0 BUSLVMAI76.1.0 BUSLVMAI76.0.2] kvs=[7.22 0.12 0.12] kVAs=[50.0 50.0 50.0] conns=[wye wye wye] Taps=[1.00, 1, 1] normhkva=50.0 !GroupMV=1 !GroupLV=76
new transformer.MAI1P_77 phases=1 windings=3 Xhl=1.71 Xht=1.71 Xlt=1.14 %Rs=[0.55 1.10 1.10] %noloadloss=0.44 %imag=1.10 Buses=[BUSMVMAI68.1.0 BUSLVMAI77.1.0 BUSLVMAI77.0.2] kvs=[7.22 0.12 0.12] kVAs=[37.5 37.5 37.5] conns=[wye wye wye] Taps=[1.00, 1, 1] normhkva=37.5 !GroupMV=1 !GroupLV=77
new transformer.MAI1P_78 phases=1 windings=3 Xhl=1.86 Xht=1.86 Xlt=1.24 %Rs=[0.55 1.10 1.10]  %noloadloss=0.37 %imag=1.00 Buses=[BUSMVMAI922.1.0 BUSLVMAI78.1.0 BUSLVMAI78.0.2] kvs=[7.22 0.12 0.12] kVAs=[50.0 50.0 50.0] conns=[wye wye wye] Taps=[1.00, 1, 1] normhkva=50.0 !GroupMV=1 !GroupLV=78
new transformer.MAI1P_79 phases=1 windings=3 Xhl=1.71 Xht=1.71 Xlt=1.14 %Rs=[0.55 1.10 1.10] %noloadloss=0.44 %imag=1.10 Buses=[BUSMVMAI717.3.0 BUSLVMAI79.1.0 BUSLVMAI79.0.2] kvs=[7.22 0.12 0.12] kVAs=[37.5 37.5 37.5] conns=[wye wye wye] Taps=[1.00, 1, 1] normhkva=37.5 !GroupMV=1 !GroupLV=79
new transformer.MAI1P_80 phases=1 windings=3 Xhl=1.86 Xht=1.86 Xlt=1.24 %Rs=[0.55 1.10 1.10]  %noloadloss=0.37 %imag=1.00 Buses=[BUSMVMAI879.3.0 BUSLVMAI80.1.0 BUSLVMAI80.0.2] kvs=[7.22 0.12 0.12] kVAs=[50.0 50.0 50.0] conns=[wye wye wye] Taps=[1.00, 1, 1] normhkva=50.0 !GroupMV=1 !GroupLV=80
new transformer.MAI1P_81 phases=1 windings=3 Xhl=1.71 Xht=1.71 Xlt=1.14 %Rs=[0.55 1.10 1.10] %noloadloss=0.44 %imag=1.10 Buses=[BUSMVMAI903.3.0 BUSLVMAI81.1.0 BUSLVMAI81.0.2] kvs=[7.22 0.12 0.12] kVAs=[37.5 37.5 37.5] conns=[wye wye wye] Taps=[1.00, 1, 1] normhkva=37.5 !GroupMV=1 !GroupLV=81
new transformer.MAI1P_82 phases=1 windings=3 Xhl=1.49 Xht=1.49 Xlt=1.00 %Rs=[0.65 1.30 1.30] %noloadloss=0.47 %imag=1.30 Buses=[BUSMVMAI894.3.0 BUSLVMAI82.1.0 BUSLVMAI82.0.2] kvs=[7.22 0.12 0.12] kVAs=[25.0 25.0 25.0] conns=[wye wye wye] Taps=[1.00, 1, 1] normhkva=25.0 !GroupMV=1 !GroupLV=82
new transformer.MAI1P_83 phases=1 windings=3 Xhl=1.71 Xht=1.71 Xlt=1.14 %Rs=[0.55 1.10 1.10] %noloadloss=0.44 %imag=1.10 Buses=[BUSMVMAI910.1.0 BUSLVMAI83.1.0 BUSLVMAI83.0.2] kvs=[7.22 0.12 0.12] kVAs=[37.5 37.5 37.5] conns=[wye wye wye] Taps=[1.00, 1, 1] normhkva=37.5 !GroupMV=1 !GroupLV=83
new transformer.MAI1P_84 phases=1 windings=3 Xhl=1.71 Xht=1.71 Xlt=1.14 %Rs=[0.55 1.10 1.10] %noloadloss=0.44 %imag=1.10 Buses=[BUSMVMAI941.3.0 BUSLVMAI84.1.0 BUSLVMAI84.0.2] kvs=[7.22 0.12 0.12] kVAs=[37.5 37.5 37.5] conns=[wye wye wye] Taps=[1.00, 1, 1] normhkva=37.5 !GroupMV=1 !GroupLV=84
new transformer.MAI1P_85 phases=1 windings=3 Xhl=1.80 Xht=1.80 Xlt=1.20 %Rs=[0.50 1.00 1.00] %noloadloss=0.38 %imag=1.40 Buses=[BUSMVMAI2196.2.0 BUSLVMAI85.1.0 BUSLVMAI85.0.2] kvs=[7.22 0.12 0.12] kVAs=[75.0 75.0 75.0] conns=[wye wye wye] Taps=[1.00, 1, 1] normhkva=75.0 !GroupMV=1 !GroupLV=85
new transformer.MAI1P_86 phases=1 windings=3 Xhl=1.71 Xht=1.71 Xlt=1.14 %Rs=[0.55 1.10 1.10] %noloadloss=0.44 %imag=1.10 Buses=[BUSMVMAI918.1.0 BUSLVMAI86.1.0 BUSLVMAI86.0.2] kvs=[7.22 0.12 0.12] kVAs=[37.5 37.5 37.5] conns=[wye wye wye] Taps=[1.00, 1, 1] normhkva=37.5 !GroupMV=1 !GroupLV=86
new transformer.MAI1P_87 phases=1 windings=3 Xhl=1.80 Xht=1.80 Xlt=1.20 %Rs=[0.50 1.00 1.00] %noloadloss=0.38 %imag=1.40 Buses=[BUSMVMAI2185.1.0 BUSLVMAI87.1.0 BUSLVMAI87.0.2] kvs=[7.22 0.12 0.12] kVAs=[75.0 75.0 75.0] conns=[wye wye wye] Taps=[1.00, 1, 1] normhkva=75.0 !GroupMV=1 !GroupLV=87
new transformer.MAI1P_88 phases=1 windings=3 Xhl=1.86 Xht=1.86 Xlt=1.24 %Rs=[0.55 1.10 1.10]  %noloadloss=0.37 %imag=1.00 Buses=[BUSMVMAI904.3.0 BUSLVMAI88.1.0 BUSLVMAI88.0.2] kvs=[7.22 0.12 0.12] kVAs=[50.0 50.0 50.0] conns=[wye wye wye] Taps=[1.00, 1, 1] normhkva=50.0 !GroupMV=1 !GroupLV=88
new transformer.MAI1P_89 phases=1 windings=3 Xhl=1.86 Xht=1.86 Xlt=1.24 %Rs=[0.55 1.10 1.10]  %noloadloss=0.37 %imag=1.00 Buses=[BUSMVMAI906.3.0 BUSLVMAI89.1.0 BUSLVMAI89.0.2] kvs=[7.22 0.12 0.12] kVAs=[50.0 50.0 50.0] conns=[wye wye wye] Taps=[1.00, 1, 1] normhkva=50.0 !GroupMV=1 !GroupLV=89
new transformer.MAI1P_90 phases=1 windings=3 Xhl=1.49 Xht=1.49 Xlt=1.00 %Rs=[0.65 1.30 1.30] %noloadloss=0.47 %imag=1.30 Buses=[BUSMVMAI891.3.0 BUSLVMAI90.1.0 BUSLVMAI90.0.2] kvs=[7.22 0.12 0.12] kVAs=[25.0 25.0 25.0] conns=[wye wye wye] Taps=[1.00, 1, 1] normhkva=25.0 !GroupMV=1 !GroupLV=90
new transformer.MAI1P_91 phases=1 windings=3 Xhl=1.80 Xht=1.80 Xlt=1.20 %Rs=[0.50 1.00 1.00] %noloadloss=0.38 %imag=1.40 Buses=[BUSMVMAI2184.3.0 BUSLVMAI91.1.0 BUSLVMAI91.0.2] kvs=[7.22 0.12 0.12] kVAs=[75.0 75.0 75.0] conns=[wye wye wye] Taps=[1.00, 1, 1] normhkva=75.0 !GroupMV=1 !GroupLV=91
new transformer.MAI1P_92 phases=1 windings=3 Xhl=1.86 Xht=1.86 Xlt=1.24 %Rs=[0.55 1.10 1.10]  %noloadloss=0.37 %imag=1.00 Buses=[BUSMVMAI76.1.0 BUSLVMAI92.1.0 BUSLVMAI92.0.2] kvs=[7.22 0.12 0.12] kVAs=[50.0 50.0 50.0] conns=[wye wye wye] Taps=[1.00, 1, 1] normhkva=50.0 !GroupMV=1 !GroupLV=92
new transformer.MAI1P_93 phases=1 windings=3 Xhl=2.14 Xht=2.14 Xlt=1.43 %Rs=[0.45 0.90 0.90] %noloadloss=0.36 %imag=1.30 Buses=[BUSMVMAI716.3.0 BUSLVMAI93.1.0 BUSLVMAI93.0.2] kvs=[7.22 0.12 0.12] kVAs=[100.0 100.0 100.0] conns=[wye wye wye] Taps=[1.00, 1, 1] normhkva=100.0 !GroupMV=1 !GroupLV=93
new transformer.MAI1P_94 phases=1 windings=3 Xhl=1.71 Xht=1.71 Xlt=1.14 %Rs=[0.55 1.10 1.10] %noloadloss=0.44 %imag=1.10 Buses=[BUSMVMAI882.3.0 BUSLVMAI94.1.0 BUSLVMAI94.0.2] kvs=[7.22 0.12 0.12] kVAs=[37.5 37.5 37.5] conns=[wye wye wye] Taps=[1.00, 1, 1] normhkva=37.5 !GroupMV=1 !GroupLV=94
new transformer.MAI1P_95 phases=1 windings=3 Xhl=1.80 Xht=1.80 Xlt=1.20 %Rs=[0.50 1.00 1.00] %noloadloss=0.38 %imag=1.40 Buses=[BUSMVMAI930.3.0 BUSLVMAI95.1.0 BUSLVMAI95.0.2] kvs=[7.22 0.12 0.12] kVAs=[75.0 75.0 75.0] conns=[wye wye wye] Taps=[1.00, 1, 1] normhkva=75.0 !GroupMV=1 !GroupLV=95
new transformer.MAI1P_96 phases=1 windings=3 Xhl=1.71 Xht=1.71 Xlt=1.14 %Rs=[0.55 1.10 1.10] %noloadloss=0.44 %imag=1.10 Buses=[BUSMVMAI703.3.0 BUSLVMAI96.1.0 BUSLVMAI96.0.2] kvs=[7.22 0.12 0.12] kVAs=[37.5 37.5 37.5] conns=[wye wye wye] Taps=[1.00, 1, 1] normhkva=37.5 !GroupMV=1 !GroupLV=96
new transformer.MAI1P_97 phases=1 windings=3 Xhl=1.80 Xht=1.80 Xlt=1.20 %Rs=[0.50 1.00 1.00] %noloadloss=0.38 %imag=1.40 Buses=[BUSMVMAI2193.2.0 BUSLVMAI97.1.0 BUSLVMAI97.0.2] kvs=[7.22 0.12 0.12] kVAs=[75.0 75.0 75.0] conns=[wye wye wye] Taps=[1.00, 1, 1] normhkva=75.0 !GroupMV=1 !GroupLV=97
new transformer.MAI1P_98 phases=1 windings=3 Xhl=1.80 Xht=1.80 Xlt=1.20 %Rs=[0.50 1.00 1.00] %noloadloss=0.38 %imag=1.40 Buses=[BUSMVMAI2195.2.0 BUSLVMAI98.1.0 BUSLVMAI98.0.2] kvs=[7.22 0.12 0.12] kVAs=[75.0 75.0 75.0] conns=[wye wye wye] Taps=[1.00, 1, 1] normhkva=75.0 !GroupMV=1 !GroupLV=98
new transformer.MAI1P_99 phases=1 windings=3 Xhl=1.71 Xht=1.71 Xlt=1.14 %Rs=[0.55 1.10 1.10] %noloadloss=0.44 %imag=1.10 Buses=[BUSMVMAI705.3.0 BUSLVMAI99.1.0 BUSLVMAI99.0.2] kvs=[7.22 0.12 0.12] kVAs=[37.5 37.5 37.5] conns=[wye wye wye] Taps=[1.00, 1, 1] normhkva=37.5 !GroupMV=1 !GroupLV=99
new transformer.MAI1P_100 phases=1 windings=3 Xhl=1.71 Xht=1.71 Xlt=1.14 %Rs=[0.55 1.10 1.10] %noloadloss=0.44 %imag=1.10 Buses=[BUSMVMAI704.3.0 BUSLVMAI100.1.0 BUSLVMAI100.0.2] kvs=[7.22 0.12 0.12] kVAs=[37.5 37.5 37.5] conns=[wye wye wye] Taps=[1.00, 1, 1] normhkva=37.5 !GroupMV=1 !GroupLV=100
new transformer.MAI1P_101 phases=1 windings=3 Xhl=2.14 Xht=2.14 Xlt=1.43 %Rs=[0.45 0.90 0.90] %noloadloss=0.36 %imag=1.30 Buses=[BUSMVMAI923.3.0 BUSLVMAI101.1.0 BUSLVMAI101.0.2] kvs=[7.22 0.12 0.12] kVAs=[100.0 100.0 100.0] conns=[wye wye wye] Taps=[1.00, 1, 1] normhkva=100.0 !GroupMV=1 !GroupLV=101
new transformer.MAI1P_102 phases=1 windings=3 Xhl=1.49 Xht=1.49 Xlt=1.00 %Rs=[0.65 1.30 1.30] %noloadloss=0.47 %imag=1.30 Buses=[BUSMVMAI902.3.0 BUSLVMAI102.1.0 BUSLVMAI102.0.2] kvs=[7.22 0.12 0.12] kVAs=[25.0 25.0 25.0] conns=[wye wye wye] Taps=[1.00, 1, 1] normhkva=25.0 !GroupMV=1 !GroupLV=102
new transformer.MAI1P_103 phases=1 windings=3 Xhl=1.80 Xht=1.80 Xlt=1.20 %Rs=[0.50 1.00 1.00] %noloadloss=0.38 %imag=1.40 Buses=[BUSMVMAI719.3.0 BUSLVMAI103.1.0 BUSLVMAI103.0.2] kvs=[7.22 0.12 0.12] kVAs=[75.0 75.0 75.0] conns=[wye wye wye] Taps=[1.00, 1, 1] normhkva=75.0 !GroupMV=1 !GroupLV=103
new transformer.MAI1P_104 phases=1 windings=3 Xhl=1.71 Xht=1.71 Xlt=1.14 %Rs=[0.55 1.10 1.10] %noloadloss=0.44 %imag=1.10 Buses=[BUSMVMAI720.3.0 BUSLVMAI104.1.0 BUSLVMAI104.0.2] kvs=[7.22 0.12 0.12] kVAs=[37.5 37.5 37.5] conns=[wye wye wye] Taps=[1.00, 1, 1] normhkva=37.5 !GroupMV=1 !GroupLV=104
new transformer.MAI1P_105 phases=1 windings=3 Xhl=1.71 Xht=1.71 Xlt=1.14 %Rs=[0.55 1.10 1.10] %noloadloss=0.44 %imag=1.10 Buses=[BUSMVMAI721.3.0 BUSLVMAI105.1.0 BUSLVMAI105.0.2] kvs=[7.22 0.12 0.12] kVAs=[37.5 37.5 37.5] conns=[wye wye wye] Taps=[1.00, 1, 1] normhkva=37.5 !GroupMV=1 !GroupLV=105
new transformer.MAI1P_106 phases=1 windings=3 Xhl=1.86 Xht=1.86 Xlt=1.24 %Rs=[0.55 1.10 1.10]  %noloadloss=0.37 %imag=1.00 Buses=[BUSMVMAI943.1.0 BUSLVMAI106.1.0 BUSLVMAI106.0.2] kvs=[7.22 0.12 0.12] kVAs=[50.0 50.0 50.0] conns=[wye wye wye] Taps=[1.00, 1, 1] normhkva=50.0 !GroupMV=1 !GroupLV=106
new transformer.MAI1P_107 phases=1 windings=3 Xhl=1.71 Xht=1.71 Xlt=1.14 %Rs=[0.55 1.10 1.10] %noloadloss=0.44 %imag=1.10 Buses=[BUSMVMAI944.3.0 BUSLVMAI107.1.0 BUSLVMAI107.0.2] kvs=[7.22 0.12 0.12] kVAs=[37.5 37.5 37.5] conns=[wye wye wye] Taps=[1.00, 1, 1] normhkva=37.5 !GroupMV=1 !GroupLV=107
new transformer.MAI1P_108 phases=1 windings=3 Xhl=1.71 Xht=1.71 Xlt=1.14 %Rs=[0.55 1.10 1.10] %noloadloss=0.44 %imag=1.10 Buses=[BUSMVMAI131.3.0 BUSLVMAI108.1.0 BUSLVMAI108.0.2] kvs=[7.22 0.12 0.12] kVAs=[37.5 37.5 37.5] conns=[wye wye wye] Taps=[1.00, 1, 1] normhkva=37.5 !GroupMV=1 !GroupLV=108
new transformer.MAI1P_109 phases=1 windings=3 Xhl=1.49 Xht=1.49 Xlt=1.00 %Rs=[0.65 1.30 1.30] %noloadloss=0.47 %imag=1.30 Buses=[BUSMVMAI1008.1.0 BUSLVMAI109.1.0 BUSLVMAI109.0.2] kvs=[7.22 0.12 0.12] kVAs=[25.0 25.0 25.0] conns=[wye wye wye] Taps=[1.00, 1, 1] normhkva=25.0 !GroupMV=1 !GroupLV=109
new transformer.MAI1P_110 phases=1 windings=3 Xhl=1.86 Xht=1.86 Xlt=1.24 %Rs=[0.55 1.10 1.10]  %noloadloss=0.37 %imag=1.00 Buses=[BUSMVMAI1023.1.0 BUSLVMAI110.1.0 BUSLVMAI110.0.2] kvs=[7.22 0.12 0.12] kVAs=[50.0 50.0 50.0] conns=[wye wye wye] Taps=[1.00, 1, 1] normhkva=50.0 !GroupMV=1 !GroupLV=110
new transformer.MAI1P_111 phases=1 windings=3 Xhl=1.49 Xht=1.49 Xlt=1.00 %Rs=[0.65 1.30 1.30] %noloadloss=0.47 %imag=1.30 Buses=[BUSMVMAI1024.1.0 BUSLVMAI111.1.0 BUSLVMAI111.0.2] kvs=[7.22 0.12 0.12] kVAs=[25.0 25.0 25.0] conns=[wye wye wye] Taps=[1.00, 1, 1] normhkva=25.0 !GroupMV=1 !GroupLV=111
new transformer.MAI1P_112 phases=1 windings=3 Xhl=1.49 Xht=1.49 Xlt=1.00 %Rs=[0.65 1.30 1.30] %noloadloss=0.47 %imag=1.30 Buses=[BUSMVMAI965.1.0 BUSLVMAI112.1.0 BUSLVMAI112.0.2] kvs=[7.22 0.12 0.12] kVAs=[25.0 25.0 25.0] conns=[wye wye wye] Taps=[1.00, 1, 1] normhkva=25.0 !GroupMV=1 !GroupLV=112
new transformer.MAI1P_113 phases=1 windings=3 Xhl=1.80 Xht=1.80 Xlt=1.20 %Rs=[0.50 1.00 1.00] %noloadloss=0.38 %imag=1.40 Buses=[BUSMVMAI974.2.0 BUSLVMAI113.1.0 BUSLVMAI113.0.2] kvs=[7.22 0.12 0.12] kVAs=[75.0 75.0 75.0] conns=[wye wye wye] Taps=[1.00, 1, 1] normhkva=75.0 !GroupMV=1 !GroupLV=113
new transformer.MAI1P_114 phases=1 windings=3 Xhl=1.80 Xht=1.80 Xlt=1.20 %Rs=[0.50 1.00 1.00] %noloadloss=0.38 %imag=1.40 Buses=[BUSMVMAI210.1.0 BUSLVMAI114.1.0 BUSLVMAI114.0.2] kvs=[7.22 0.12 0.12] kVAs=[75.0 75.0 75.0] conns=[wye wye wye] Taps=[1.00, 1, 1] normhkva=75.0 !GroupMV=1 !GroupLV=114
new transformer.MAI1P_115 phases=1 windings=3 Xhl=1.86 Xht=1.86 Xlt=1.24 %Rs=[0.55 1.10 1.10]  %noloadloss=0.37 %imag=1.00 Buses=[BUSMVMAI1037.1.0 BUSLVMAI115.1.0 BUSLVMAI115.0.2] kvs=[7.22 0.12 0.12] kVAs=[50.0 50.0 50.0] conns=[wye wye wye] Taps=[1.00, 1, 1] normhkva=50.0 !GroupMV=1 !GroupLV=115
new transformer.MAI1P_116 phases=1 windings=3 Xhl=1.86 Xht=1.86 Xlt=1.24 %Rs=[0.55 1.10 1.10]  %noloadloss=0.37 %imag=1.00 Buses=[BUSMVMAI211.3.0 BUSLVMAI116.1.0 BUSLVMAI116.0.2] kvs=[7.22 0.12 0.12] kVAs=[50.0 50.0 50.0] conns=[wye wye wye] Taps=[1.00, 1, 1] normhkva=50.0 !GroupMV=1 !GroupLV=116
new transformer.MAI1P_117 phases=1 windings=3 Xhl=1.80 Xht=1.80 Xlt=1.20 %Rs=[0.50 1.00 1.00] %noloadloss=0.38 %imag=1.40 Buses=[BUSMVMAI1021.1.0 BUSLVMAI117.1.0 BUSLVMAI117.0.2] kvs=[7.22 0.12 0.12] kVAs=[75.0 75.0 75.0] conns=[wye wye wye] Taps=[1.00, 1, 1] normhkva=75.0 !GroupMV=1 !GroupLV=117
new transformer.MAI1P_118 phases=1 windings=3 Xhl=1.49 Xht=1.49 Xlt=1.00 %Rs=[0.65 1.30 1.30] %noloadloss=0.47 %imag=1.30 Buses=[BUSMVMAI1000.1.0 BUSLVMAI118.1.0 BUSLVMAI118.0.2] kvs=[7.22 0.12 0.12] kVAs=[25.0 25.0 25.0] conns=[wye wye wye] Taps=[1.00, 1, 1] normhkva=25.0 !GroupMV=1 !GroupLV=118
new transformer.MAI1P_119 phases=1 windings=3 Xhl=1.86 Xht=1.86 Xlt=1.24 %Rs=[0.55 1.10 1.10]  %noloadloss=0.37 %imag=1.00 Buses=[BUSMVMAI957.3.0 BUSLVMAI119.1.0 BUSLVMAI119.0.2] kvs=[7.22 0.12 0.12] kVAs=[50.0 50.0 50.0] conns=[wye wye wye] Taps=[1.00, 1, 1] normhkva=50.0 !GroupMV=1 !GroupLV=119
new transformer.MAI1P_120 phases=1 windings=3 Xhl=1.71 Xht=1.71 Xlt=1.14 %Rs=[0.55 1.10 1.10] %noloadloss=0.44 %imag=1.10 Buses=[BUSMVMAI1053.1.0 BUSLVMAI120.1.0 BUSLVMAI120.0.2] kvs=[7.22 0.12 0.12] kVAs=[37.5 37.5 37.5] conns=[wye wye wye] Taps=[1.00, 1, 1] normhkva=37.5 !GroupMV=1 !GroupLV=120
new transformer.MAI1P_121 phases=1 windings=3 Xhl=2.14 Xht=2.14 Xlt=1.43 %Rs=[0.45 0.90 0.90] %noloadloss=0.36 %imag=1.30 Buses=[BUSMVMAI2206.2.0 BUSLVMAI121.1.0 BUSLVMAI121.0.2] kvs=[7.22 0.12 0.12] kVAs=[100.0 100.0 100.0] conns=[wye wye wye] Taps=[1.00, 1, 1] normhkva=100.0 !GroupMV=1 !GroupLV=121
new transformer.MAI1P_122 phases=1 windings=3 Xhl=2.14 Xht=2.14 Xlt=1.43 %Rs=[0.45 0.90 0.90] %noloadloss=0.36 %imag=1.30 Buses=[BUSMVMAI742.3.0 BUSLVMAI122.1.0 BUSLVMAI122.0.2] kvs=[7.22 0.12 0.12] kVAs=[100.0 100.0 100.0] conns=[wye wye wye] Taps=[1.00, 1, 1] normhkva=100.0 !GroupMV=1 !GroupLV=122
new transformer.MAI1P_123 phases=1 windings=3 Xhl=1.71 Xht=1.71 Xlt=1.14 %Rs=[0.55 1.10 1.10] %noloadloss=0.44 %imag=1.10 Buses=[BUSMVMAI993.2.0 BUSLVMAI123.1.0 BUSLVMAI123.0.2] kvs=[7.22 0.12 0.12] kVAs=[37.5 37.5 37.5] conns=[wye wye wye] Taps=[1.00, 1, 1] normhkva=37.5 !GroupMV=1 !GroupLV=123
new transformer.MAI1P_124 phases=1 windings=3 Xhl=1.71 Xht=1.71 Xlt=1.14 %Rs=[0.55 1.10 1.10] %noloadloss=0.44 %imag=1.10 Buses=[BUSMVMAI967.3.0 BUSLVMAI124.1.0 BUSLVMAI124.0.2] kvs=[7.22 0.12 0.12] kVAs=[37.5 37.5 37.5] conns=[wye wye wye] Taps=[1.00, 1, 1] normhkva=37.5 !GroupMV=1 !GroupLV=124
new transformer.MAI1P_125 phases=1 windings=3 Xhl=1.71 Xht=1.71 Xlt=1.14 %Rs=[0.55 1.10 1.10] %noloadloss=0.44 %imag=1.10 Buses=[BUSMVMAI738.3.0 BUSLVMAI125.1.0 BUSLVMAI125.0.2] kvs=[7.22 0.12 0.12] kVAs=[37.5 37.5 37.5] conns=[wye wye wye] Taps=[1.00, 1, 1] normhkva=37.5 !GroupMV=1 !GroupLV=125
new transformer.MAI1P_126 phases=1 windings=3 Xhl=1.71 Xht=1.71 Xlt=1.14 %Rs=[0.55 1.10 1.10] %noloadloss=0.44 %imag=1.10 Buses=[BUSMVMAI996.2.0 BUSLVMAI126.1.0 BUSLVMAI126.0.2] kvs=[7.22 0.12 0.12] kVAs=[37.5 37.5 37.5] conns=[wye wye wye] Taps=[1.00, 1, 1] normhkva=37.5 !GroupMV=1 !GroupLV=126
new transformer.MAI1P_127 phases=1 windings=3 Xhl=1.71 Xht=1.71 Xlt=1.14 %Rs=[0.55 1.10 1.10] %noloadloss=0.44 %imag=1.10 Buses=[BUSMVMAI736.3.0 BUSLVMAI127.1.0 BUSLVMAI127.0.2] kvs=[7.22 0.12 0.12] kVAs=[37.5 37.5 37.5] conns=[wye wye wye] Taps=[1.00, 1, 1] normhkva=37.5 !GroupMV=1 !GroupLV=127
new transformer.MAI1P_128 phases=1 windings=3 Xhl=1.71 Xht=1.71 Xlt=1.14 %Rs=[0.55 1.10 1.10] %noloadloss=0.44 %imag=1.10 Buses=[BUSMVMAI977.2.0 BUSLVMAI128.1.0 BUSLVMAI128.0.2] kvs=[7.22 0.12 0.12] kVAs=[37.5 37.5 37.5] conns=[wye wye wye] Taps=[1.00, 1, 1] normhkva=37.5 !GroupMV=1 !GroupLV=128
new transformer.MAI1P_129 phases=1 windings=3 Xhl=1.86 Xht=1.86 Xlt=1.24 %Rs=[0.55 1.10 1.10]  %noloadloss=0.37 %imag=1.00 Buses=[BUSMVMAI1049.1.0 BUSLVMAI129.1.0 BUSLVMAI129.0.2] kvs=[7.22 0.12 0.12] kVAs=[50.0 50.0 50.0] conns=[wye wye wye] Taps=[1.00, 1, 1] normhkva=50.0 !GroupMV=1 !GroupLV=129
new transformer.MAI1P_130 phases=1 windings=3 Xhl=1.80 Xht=1.80 Xlt=1.20 %Rs=[0.50 1.00 1.00] %noloadloss=0.38 %imag=1.40 Buses=[BUSMVMAI2203.1.0 BUSLVMAI130.1.0 BUSLVMAI130.0.2] kvs=[7.22 0.12 0.12] kVAs=[75.0 75.0 75.0] conns=[wye wye wye] Taps=[1.00, 1, 1] normhkva=75.0 !GroupMV=1 !GroupLV=130
new transformer.MAI1P_131 phases=1 windings=3 Xhl=1.49 Xht=1.49 Xlt=1.00 %Rs=[0.65 1.30 1.30] %noloadloss=0.47 %imag=1.30 Buses=[BUSMVMAI1034.1.0 BUSLVMAI131.1.0 BUSLVMAI131.0.2] kvs=[7.22 0.12 0.12] kVAs=[25.0 25.0 25.0] conns=[wye wye wye] Taps=[1.00, 1, 1] normhkva=25.0 !GroupMV=1 !GroupLV=131
new transformer.MAI1P_132 phases=1 windings=3 Xhl=1.86 Xht=1.86 Xlt=1.24 %Rs=[0.55 1.10 1.10]  %noloadloss=0.37 %imag=1.00 Buses=[BUSMVMAI1077.1.0 BUSLVMAI132.1.0 BUSLVMAI132.0.2] kvs=[7.22 0.12 0.12] kVAs=[50.0 50.0 50.0] conns=[wye wye wye] Taps=[1.00, 1, 1] normhkva=50.0 !GroupMV=1 !GroupLV=132
new transformer.MAI1P_133 phases=1 windings=3 Xhl=1.19 Xht=1.19 Xlt=0.80 %Rs=[0.75 1.50 1.50] %noloadloss=0.56 %imag=1.40 Buses=[BUSMVMAI950.3.0 BUSLVMAI133.1.0 BUSLVMAI133.0.2] kvs=[7.22 0.12 0.12] kVAs=[15.0 15.0 15.0] conns=[wye wye wye] Taps=[1.00, 1, 1] normhkva=15.0 !GroupMV=1 !GroupLV=133
new transformer.MAI1P_134 phases=1 windings=3 Xhl=1.86 Xht=1.86 Xlt=1.24 %Rs=[0.55 1.10 1.10]  %noloadloss=0.37 %imag=1.00 Buses=[BUSMVMAI979.3.0 BUSLVMAI134.1.0 BUSLVMAI134.0.2] kvs=[7.22 0.12 0.12] kVAs=[50.0 50.0 50.0] conns=[wye wye wye] Taps=[1.00, 1, 1] normhkva=50.0 !GroupMV=1 !GroupLV=134
new transformer.MAI1P_135 phases=1 windings=3 Xhl=2.14 Xht=2.14 Xlt=1.43 %Rs=[0.45 0.90 0.90] %noloadloss=0.36 %imag=1.30 Buses=[BUSMVMAI2204.3.0 BUSLVMAI135.1.0 BUSLVMAI135.0.2] kvs=[7.22 0.12 0.12] kVAs=[100.0 100.0 100.0] conns=[wye wye wye] Taps=[1.00, 1, 1] normhkva=100.0 !GroupMV=1 !GroupLV=135
new transformer.MAI1P_136 phases=1 windings=3 Xhl=1.86 Xht=1.86 Xlt=1.24 %Rs=[0.55 1.10 1.10]  %noloadloss=0.37 %imag=1.00 Buses=[BUSMVMAI994.1.0 BUSLVMAI136.1.0 BUSLVMAI136.0.2] kvs=[7.22 0.12 0.12] kVAs=[50.0 50.0 50.0] conns=[wye wye wye] Taps=[1.00, 1, 1] normhkva=50.0 !GroupMV=1 !GroupLV=136
new transformer.MAI1P_137 phases=1 windings=3 Xhl=1.86 Xht=1.86 Xlt=1.24 %Rs=[0.55 1.10 1.10]  %noloadloss=0.37 %imag=1.00 Buses=[BUSMVMAI970.2.0 BUSLVMAI137.1.0 BUSLVMAI137.0.2] kvs=[7.22 0.12 0.12] kVAs=[50.0 50.0 50.0] conns=[wye wye wye] Taps=[1.00, 1, 1] normhkva=50.0 !GroupMV=1 !GroupLV=137
new transformer.MAI1P_138 phases=1 windings=3 Xhl=1.80 Xht=1.80 Xlt=1.20 %Rs=[0.50 1.00 1.00] %noloadloss=0.38 %imag=1.40 Buses=[BUSMVMAI224.2.0 BUSLVMAI138.1.0 BUSLVMAI138.0.2] kvs=[7.22 0.12 0.12] kVAs=[75.0 75.0 75.0] conns=[wye wye wye] Taps=[1.00, 1, 1] normhkva=75.0 !GroupMV=1 !GroupLV=138
new transformer.MAI1P_139 phases=1 windings=3 Xhl=1.71 Xht=1.71 Xlt=1.14 %Rs=[0.55 1.10 1.10] %noloadloss=0.44 %imag=1.10 Buses=[BUSMVMAI985.2.0 BUSLVMAI139.1.0 BUSLVMAI139.0.2] kvs=[7.22 0.12 0.12] kVAs=[37.5 37.5 37.5] conns=[wye wye wye] Taps=[1.00, 1, 1] normhkva=37.5 !GroupMV=1 !GroupLV=139
new transformer.MAI1P_140 phases=1 windings=3 Xhl=1.49 Xht=1.49 Xlt=1.00 %Rs=[0.65 1.30 1.30] %noloadloss=0.47 %imag=1.30 Buses=[BUSMVMAI198.1.0 BUSLVMAI140.1.0 BUSLVMAI140.0.2] kvs=[7.22 0.12 0.12] kVAs=[25.0 25.0 25.0] conns=[wye wye wye] Taps=[1.00, 1, 1] normhkva=25.0 !GroupMV=1 !GroupLV=140
new transformer.MAI1P_141 phases=1 windings=3 Xhl=1.71 Xht=1.71 Xlt=1.14 %Rs=[0.55 1.10 1.10] %noloadloss=0.44 %imag=1.10 Buses=[BUSMVMAI987.2.0 BUSLVMAI141.1.0 BUSLVMAI141.0.2] kvs=[7.22 0.12 0.12] kVAs=[37.5 37.5 37.5] conns=[wye wye wye] Taps=[1.00, 1, 1] normhkva=37.5 !GroupMV=1 !GroupLV=141
new transformer.MAI1P_142 phases=1 windings=3 Xhl=1.71 Xht=1.71 Xlt=1.14 %Rs=[0.55 1.10 1.10] %noloadloss=0.44 %imag=1.10 Buses=[BUSMVMAI195.2.0 BUSLVMAI142.1.0 BUSLVMAI142.0.2] kvs=[7.22 0.12 0.12] kVAs=[37.5 37.5 37.5] conns=[wye wye wye] Taps=[1.00, 1, 1] normhkva=37.5 !GroupMV=1 !GroupLV=142
new transformer.MAI1P_143 phases=1 windings=3 Xhl=1.80 Xht=1.80 Xlt=1.20 %Rs=[0.50 1.00 1.00] %noloadloss=0.38 %imag=1.40 Buses=[BUSMVMAI2202.2.0 BUSLVMAI143.1.0 BUSLVMAI143.0.2] kvs=[7.22 0.12 0.12] kVAs=[75.0 75.0 75.0] conns=[wye wye wye] Taps=[1.00, 1, 1] normhkva=75.0 !GroupMV=1 !GroupLV=143
new transformer.MAI1P_144 phases=1 windings=3 Xhl=1.80 Xht=1.80 Xlt=1.20 %Rs=[0.50 1.00 1.00] %noloadloss=0.38 %imag=1.40 Buses=[BUSMVMAI740.3.0 BUSLVMAI144.1.0 BUSLVMAI144.0.2] kvs=[7.22 0.12 0.12] kVAs=[75.0 75.0 75.0] conns=[wye wye wye] Taps=[1.00, 1, 1] normhkva=75.0 !GroupMV=1 !GroupLV=144
new transformer.MAI1P_145 phases=1 windings=3 Xhl=1.80 Xht=1.80 Xlt=1.20 %Rs=[0.50 1.00 1.00] %noloadloss=0.38 %imag=1.40 Buses=[BUSMVMAI2199.1.0 BUSLVMAI145.1.0 BUSLVMAI145.0.2] kvs=[7.22 0.12 0.12] kVAs=[75.0 75.0 75.0] conns=[wye wye wye] Taps=[1.00, 1, 1] normhkva=75.0 !GroupMV=1 !GroupLV=145
new transformer.MAI1P_146 phases=1 windings=3 Xhl=1.71 Xht=1.71 Xlt=1.14 %Rs=[0.55 1.10 1.10] %noloadloss=0.44 %imag=1.10 Buses=[BUSMVMAI2207.2.0 BUSLVMAI146.1.0 BUSLVMAI146.0.2] kvs=[7.22 0.12 0.12] kVAs=[37.5 37.5 37.5] conns=[wye wye wye] Taps=[1.00, 1, 1] normhkva=37.5 !GroupMV=1 !GroupLV=146
new transformer.MAI1P_147 phases=1 windings=3 Xhl=1.86 Xht=1.86 Xlt=1.24 %Rs=[0.55 1.10 1.10]  %noloadloss=0.37 %imag=1.00 Buses=[BUSMVMAI188.1.0 BUSLVMAI147.1.0 BUSLVMAI147.0.2] kvs=[7.22 0.12 0.12] kVAs=[50.0 50.0 50.0] conns=[wye wye wye] Taps=[1.00, 1, 1] normhkva=50.0 !GroupMV=1 !GroupLV=147
new transformer.MAI1P_148 phases=1 windings=3 Xhl=1.80 Xht=1.80 Xlt=1.20 %Rs=[0.50 1.00 1.00] %noloadloss=0.38 %imag=1.40 Buses=[BUSMVMAI734.3.0 BUSLVMAI148.1.0 BUSLVMAI148.0.2] kvs=[7.22 0.12 0.12] kVAs=[75.0 75.0 75.0] conns=[wye wye wye] Taps=[1.00, 1, 1] normhkva=75.0 !GroupMV=1 !GroupLV=148
new transformer.MAI1P_149 phases=1 windings=3 Xhl=1.86 Xht=1.86 Xlt=1.24 %Rs=[0.55 1.10 1.10]  %noloadloss=0.37 %imag=1.00 Buses=[BUSMVMAI960.2.0 BUSLVMAI149.1.0 BUSLVMAI149.0.2] kvs=[7.22 0.12 0.12] kVAs=[50.0 50.0 50.0] conns=[wye wye wye] Taps=[1.00, 1, 1] normhkva=50.0 !GroupMV=1 !GroupLV=149
new transformer.MAI1P_150 phases=1 windings=3 Xhl=1.80 Xht=1.80 Xlt=1.20 %Rs=[0.50 1.00 1.00] %noloadloss=0.38 %imag=1.40 Buses=[BUSMVMAI1042.1.0 BUSLVMAI150.1.0 BUSLVMAI150.0.2] kvs=[7.22 0.12 0.12] kVAs=[75.0 75.0 75.0] conns=[wye wye wye] Taps=[1.00, 1, 1] normhkva=75.0 !GroupMV=1 !GroupLV=150
new transformer.MAI1P_151 phases=1 windings=3 Xhl=1.86 Xht=1.86 Xlt=1.24 %Rs=[0.55 1.10 1.10]  %noloadloss=0.37 %imag=1.00 Buses=[BUSMVMAI228.2.0 BUSLVMAI151.1.0 BUSLVMAI151.0.2] kvs=[7.22 0.12 0.12] kVAs=[50.0 50.0 50.0] conns=[wye wye wye] Taps=[1.00, 1, 1] normhkva=50.0 !GroupMV=1 !GroupLV=151
new transformer.MAI1P_152 phases=1 windings=3 Xhl=1.80 Xht=1.80 Xlt=1.20 %Rs=[0.50 1.00 1.00] %noloadloss=0.38 %imag=1.40 Buses=[BUSMVMAI1055.1.0 BUSLVMAI152.1.0 BUSLVMAI152.0.2] kvs=[7.22 0.12 0.12] kVAs=[75.0 75.0 75.0] conns=[wye wye wye] Taps=[1.00, 1, 1] normhkva=75.0 !GroupMV=1 !GroupLV=152
new transformer.MAI1P_153 phases=1 windings=3 Xhl=1.49 Xht=1.49 Xlt=1.00 %Rs=[0.65 1.30 1.30] %noloadloss=0.47 %imag=1.30 Buses=[BUSMVMAI964.3.0 BUSLVMAI153.1.0 BUSLVMAI153.0.2] kvs=[7.22 0.12 0.12] kVAs=[25.0 25.0 25.0] conns=[wye wye wye] Taps=[1.00, 1, 1] normhkva=25.0 !GroupMV=1 !GroupLV=153
new transformer.MAI1P_154 phases=1 windings=3 Xhl=2.14 Xht=2.14 Xlt=1.43 %Rs=[0.45 0.90 0.90] %noloadloss=0.36 %imag=1.30 Buses=[BUSMVMAI732.3.0 BUSLVMAI154.1.0 BUSLVMAI154.0.2] kvs=[7.22 0.12 0.12] kVAs=[100.0 100.0 100.0] conns=[wye wye wye] Taps=[1.00, 1, 1] normhkva=100.0 !GroupMV=1 !GroupLV=154
new transformer.MAI1P_155 phases=1 windings=3 Xhl=1.71 Xht=1.71 Xlt=1.14 %Rs=[0.55 1.10 1.10] %noloadloss=0.44 %imag=1.10 Buses=[BUSMVMAI1079.1.0 BUSLVMAI155.1.0 BUSLVMAI155.0.2] kvs=[7.22 0.12 0.12] kVAs=[37.5 37.5 37.5] conns=[wye wye wye] Taps=[1.00, 1, 1] normhkva=37.5 !GroupMV=1 !GroupLV=155
new transformer.MAI1P_156 phases=1 windings=3 Xhl=1.86 Xht=1.86 Xlt=1.24 %Rs=[0.55 1.10 1.10]  %noloadloss=0.37 %imag=1.00 Buses=[BUSMVMAI1031.1.0 BUSLVMAI156.1.0 BUSLVMAI156.0.2] kvs=[7.22 0.12 0.12] kVAs=[50.0 50.0 50.0] conns=[wye wye wye] Taps=[1.00, 1, 1] normhkva=50.0 !GroupMV=1 !GroupLV=156
new transformer.MAI1P_157 phases=1 windings=3 Xhl=1.49 Xht=1.49 Xlt=1.00 %Rs=[0.65 1.30 1.30] %noloadloss=0.47 %imag=1.30 Buses=[BUSMVMAI998.1.0 BUSLVMAI157.1.0 BUSLVMAI157.0.2] kvs=[7.22 0.12 0.12] kVAs=[25.0 25.0 25.0] conns=[wye wye wye] Taps=[1.00, 1, 1] normhkva=25.0 !GroupMV=1 !GroupLV=157
new transformer.MAI1P_158 phases=1 windings=3 Xhl=1.86 Xht=1.86 Xlt=1.24 %Rs=[0.55 1.10 1.10]  %noloadloss=0.37 %imag=1.00 Buses=[BUSMVMAI2208.2.0 BUSLVMAI158.1.0 BUSLVMAI158.0.2] kvs=[7.22 0.12 0.12] kVAs=[50.0 50.0 50.0] conns=[wye wye wye] Taps=[1.00, 1, 1] normhkva=50.0 !GroupMV=1 !GroupLV=158
new transformer.MAI1P_159 phases=1 windings=3 Xhl=1.86 Xht=1.86 Xlt=1.24 %Rs=[0.55 1.10 1.10]  %noloadloss=0.37 %imag=1.00 Buses=[BUSMVMAI962.2.0 BUSLVMAI159.1.0 BUSLVMAI159.0.2] kvs=[7.22 0.12 0.12] kVAs=[50.0 50.0 50.0] conns=[wye wye wye] Taps=[1.00, 1, 1] normhkva=50.0 !GroupMV=1 !GroupLV=159
new transformer.MAI1P_160 phases=1 windings=3 Xhl=1.80 Xht=1.80 Xlt=1.20 %Rs=[0.50 1.00 1.00] %noloadloss=0.38 %imag=1.40 Buses=[BUSMVMAI199.1.0 BUSLVMAI160.1.0 BUSLVMAI160.0.2] kvs=[7.22 0.12 0.12] kVAs=[75.0 75.0 75.0] conns=[wye wye wye] Taps=[1.00, 1, 1] normhkva=75.0 !GroupMV=1 !GroupLV=160
new transformer.MAI1P_161 phases=1 windings=3 Xhl=1.71 Xht=1.71 Xlt=1.14 %Rs=[0.55 1.10 1.10] %noloadloss=0.44 %imag=1.10 Buses=[BUSMVMAI1059.1.0 BUSLVMAI161.1.0 BUSLVMAI161.0.2] kvs=[7.22 0.12 0.12] kVAs=[37.5 37.5 37.5] conns=[wye wye wye] Taps=[1.00, 1, 1] normhkva=37.5 !GroupMV=1 !GroupLV=161
new transformer.MAI1P_162 phases=1 windings=3 Xhl=1.49 Xht=1.49 Xlt=1.00 %Rs=[0.65 1.30 1.30] %noloadloss=0.47 %imag=1.30 Buses=[BUSMVMAI1041.1.0 BUSLVMAI162.1.0 BUSLVMAI162.0.2] kvs=[7.22 0.12 0.12] kVAs=[25.0 25.0 25.0] conns=[wye wye wye] Taps=[1.00, 1, 1] normhkva=25.0 !GroupMV=1 !GroupLV=162
new transformer.MAI1P_163 phases=1 windings=3 Xhl=1.80 Xht=1.80 Xlt=1.20 %Rs=[0.50 1.00 1.00] %noloadloss=0.38 %imag=1.40 Buses=[BUSMVMAI1057.1.0 BUSLVMAI163.1.0 BUSLVMAI163.0.2] kvs=[7.22 0.12 0.12] kVAs=[75.0 75.0 75.0] conns=[wye wye wye] Taps=[1.00, 1, 1] normhkva=75.0 !GroupMV=1 !GroupLV=163
new transformer.MAI1P_164 phases=1 windings=3 Xhl=1.86 Xht=1.86 Xlt=1.24 %Rs=[0.55 1.10 1.10]  %noloadloss=0.37 %imag=1.00 Buses=[BUSMVMAI2201.1.0 BUSLVMAI164.1.0 BUSLVMAI164.0.2] kvs=[7.22 0.12 0.12] kVAs=[50.0 50.0 50.0] conns=[wye wye wye] Taps=[1.00, 1, 1] normhkva=50.0 !GroupMV=1 !GroupLV=164
new transformer.MAI1P_165 phases=1 windings=3 Xhl=1.49 Xht=1.49 Xlt=1.00 %Rs=[0.65 1.30 1.30] %noloadloss=0.47 %imag=1.30 Buses=[BUSMVMAI975.1.0 BUSLVMAI165.1.0 BUSLVMAI165.0.2] kvs=[7.22 0.12 0.12] kVAs=[25.0 25.0 25.0] conns=[wye wye wye] Taps=[1.00, 1, 1] normhkva=25.0 !GroupMV=1 !GroupLV=165
new transformer.MAI1P_166 phases=1 windings=3 Xhl=1.86 Xht=1.86 Xlt=1.24 %Rs=[0.55 1.10 1.10]  %noloadloss=0.37 %imag=1.00 Buses=[BUSMVMAI1046.1.0 BUSLVMAI166.1.0 BUSLVMAI166.0.2] kvs=[7.22 0.12 0.12] kVAs=[50.0 50.0 50.0] conns=[wye wye wye] Taps=[1.00, 1, 1] normhkva=50.0 !GroupMV=1 !GroupLV=166
new transformer.MAI1P_167 phases=1 windings=3 Xhl=1.86 Xht=1.86 Xlt=1.24 %Rs=[0.55 1.10 1.10]  %noloadloss=0.37 %imag=1.00 Buses=[BUSMVMAI982.3.0 BUSLVMAI167.1.0 BUSLVMAI167.0.2] kvs=[7.22 0.12 0.12] kVAs=[50.0 50.0 50.0] conns=[wye wye wye] Taps=[1.00, 1, 1] normhkva=50.0 !GroupMV=1 !GroupLV=167
new transformer.MAI1P_168 phases=1 windings=3 Xhl=1.71 Xht=1.71 Xlt=1.14 %Rs=[0.55 1.10 1.10] %noloadloss=0.44 %imag=1.10 Buses=[BUSMVMAI741.3.0 BUSLVMAI168.1.0 BUSLVMAI168.0.2] kvs=[7.22 0.12 0.12] kVAs=[37.5 37.5 37.5] conns=[wye wye wye] Taps=[1.00, 1, 1] normhkva=37.5 !GroupMV=1 !GroupLV=168
new transformer.MAI1P_169 phases=1 windings=3 Xhl=1.19 Xht=1.19 Xlt=0.80 %Rs=[0.75 1.50 1.50] %noloadloss=0.56 %imag=1.40 Buses=[BUSMVMAI1056.1.0 BUSLVMAI169.1.0 BUSLVMAI169.0.2] kvs=[7.22 0.12 0.12] kVAs=[15.0 15.0 15.0] conns=[wye wye wye] Taps=[1.00, 1, 1] normhkva=15.0 !GroupMV=1 !GroupLV=169
new transformer.MAI1P_170 phases=1 windings=3 Xhl=1.71 Xht=1.71 Xlt=1.14 %Rs=[0.55 1.10 1.10] %noloadloss=0.44 %imag=1.10 Buses=[BUSMVMAI1065.1.0 BUSLVMAI170.1.0 BUSLVMAI170.0.2] kvs=[7.22 0.12 0.12] kVAs=[37.5 37.5 37.5] conns=[wye wye wye] Taps=[1.00, 1, 1] normhkva=37.5 !GroupMV=1 !GroupLV=170
new transformer.MAI1P_171 phases=1 windings=3 Xhl=1.49 Xht=1.49 Xlt=1.00 %Rs=[0.65 1.30 1.30] %noloadloss=0.47 %imag=1.30 Buses=[BUSMVMAI1016.1.0 BUSLVMAI171.1.0 BUSLVMAI171.0.2] kvs=[7.22 0.12 0.12] kVAs=[25.0 25.0 25.0] conns=[wye wye wye] Taps=[1.00, 1, 1] normhkva=25.0 !GroupMV=1 !GroupLV=171
new transformer.MAI1P_172 phases=1 windings=3 Xhl=1.71 Xht=1.71 Xlt=1.14 %Rs=[0.55 1.10 1.10] %noloadloss=0.44 %imag=1.10 Buses=[BUSMVMAI972.3.0 BUSLVMAI172.1.0 BUSLVMAI172.0.2] kvs=[7.22 0.12 0.12] kVAs=[37.5 37.5 37.5] conns=[wye wye wye] Taps=[1.00, 1, 1] normhkva=37.5 !GroupMV=1 !GroupLV=172
new transformer.MAI1P_173 phases=1 windings=3 Xhl=2.14 Xht=2.14 Xlt=1.43 %Rs=[0.45 0.90 0.90] %noloadloss=0.36 %imag=1.30 Buses=[BUSMVMAI737.3.0 BUSLVMAI173.1.0 BUSLVMAI173.0.2] kvs=[7.22 0.12 0.12] kVAs=[100.0 100.0 100.0] conns=[wye wye wye] Taps=[1.00, 1, 1] normhkva=100.0 !GroupMV=1 !GroupLV=173
new transformer.MAI1P_174 phases=1 windings=3 Xhl=1.49 Xht=1.49 Xlt=1.00 %Rs=[0.65 1.30 1.30] %noloadloss=0.47 %imag=1.30 Buses=[BUSMVMAI1043.1.0 BUSLVMAI174.1.0 BUSLVMAI174.0.2] kvs=[7.22 0.12 0.12] kVAs=[25.0 25.0 25.0] conns=[wye wye wye] Taps=[1.00, 1, 1] normhkva=25.0 !GroupMV=1 !GroupLV=174
new transformer.MAI1P_175 phases=1 windings=3 Xhl=1.71 Xht=1.71 Xlt=1.14 %Rs=[0.55 1.10 1.10] %noloadloss=0.44 %imag=1.10 Buses=[BUSMVMAI1068.1.0 BUSLVMAI175.1.0 BUSLVMAI175.0.2] kvs=[7.22 0.12 0.12] kVAs=[37.5 37.5 37.5] conns=[wye wye wye] Taps=[1.00, 1, 1] normhkva=37.5 !GroupMV=1 !GroupLV=175
new transformer.MAI1P_176 phases=1 windings=3 Xhl=1.86 Xht=1.86 Xlt=1.24 %Rs=[0.55 1.10 1.10]  %noloadloss=0.37 %imag=1.00 Buses=[BUSMVMAI735.3.0 BUSLVMAI176.1.0 BUSLVMAI176.0.2] kvs=[7.22 0.12 0.12] kVAs=[50.0 50.0 50.0] conns=[wye wye wye] Taps=[1.00, 1, 1] normhkva=50.0 !GroupMV=1 !GroupLV=176
new transformer.MAI1P_177 phases=1 windings=3 Xhl=1.86 Xht=1.86 Xlt=1.24 %Rs=[0.55 1.10 1.10]  %noloadloss=0.37 %imag=1.00 Buses=[BUSMVMAI730.3.0 BUSLVMAI177.1.0 BUSLVMAI177.0.2] kvs=[7.22 0.12 0.12] kVAs=[50.0 50.0 50.0] conns=[wye wye wye] Taps=[1.00, 1, 1] normhkva=50.0 !GroupMV=1 !GroupLV=177
new transformer.MAI1P_178 phases=1 windings=3 Xhl=1.86 Xht=1.86 Xlt=1.24 %Rs=[0.55 1.10 1.10]  %noloadloss=0.37 %imag=1.00 Buses=[BUSMVMAI2209.2.0 BUSLVMAI178.1.0 BUSLVMAI178.0.2] kvs=[7.22 0.12 0.12] kVAs=[50.0 50.0 50.0] conns=[wye wye wye] Taps=[1.00, 1, 1] normhkva=50.0 !GroupMV=1 !GroupLV=178
new transformer.MAI1P_179 phases=1 windings=3 Xhl=1.86 Xht=1.86 Xlt=1.24 %Rs=[0.55 1.10 1.10]  %noloadloss=0.37 %imag=1.00 Buses=[BUSMVMAI2205.2.0 BUSLVMAI179.1.0 BUSLVMAI179.0.2] kvs=[7.22 0.12 0.12] kVAs=[50.0 50.0 50.0] conns=[wye wye wye] Taps=[1.00, 1, 1] normhkva=50.0 !GroupMV=1 !GroupLV=179
new transformer.MAI1P_180 phases=1 windings=3 Xhl=1.86 Xht=1.86 Xlt=1.24 %Rs=[0.55 1.10 1.10]  %noloadloss=0.37 %imag=1.00 Buses=[BUSMVMAI1080.1.0 BUSLVMAI180.1.0 BUSLVMAI180.0.2] kvs=[7.22 0.12 0.12] kVAs=[50.0 50.0 50.0] conns=[wye wye wye] Taps=[1.00, 1, 1] normhkva=50.0 !GroupMV=1 !GroupLV=180
new transformer.MAI1P_181 phases=1 windings=3 Xhl=1.71 Xht=1.71 Xlt=1.14 %Rs=[0.55 1.10 1.10] %noloadloss=0.44 %imag=1.10 Buses=[BUSMVMAI1069.1.0 BUSLVMAI181.1.0 BUSLVMAI181.0.2] kvs=[7.22 0.12 0.12] kVAs=[37.5 37.5 37.5] conns=[wye wye wye] Taps=[1.00, 1, 1] normhkva=37.5 !GroupMV=1 !GroupLV=181
new transformer.MAI1P_182 phases=1 windings=3 Xhl=1.71 Xht=1.71 Xlt=1.14 %Rs=[0.55 1.10 1.10] %noloadloss=0.44 %imag=1.10 Buses=[BUSMVMAI1040.1.0 BUSLVMAI182.1.0 BUSLVMAI182.0.2] kvs=[7.22 0.12 0.12] kVAs=[37.5 37.5 37.5] conns=[wye wye wye] Taps=[1.00, 1, 1] normhkva=37.5 !GroupMV=1 !GroupLV=182
new transformer.MAI1P_183 phases=1 windings=3 Xhl=1.71 Xht=1.71 Xlt=1.14 %Rs=[0.55 1.10 1.10] %noloadloss=0.44 %imag=1.10 Buses=[BUSMVMAI739.3.0 BUSLVMAI183.1.0 BUSLVMAI183.0.2] kvs=[7.22 0.12 0.12] kVAs=[37.5 37.5 37.5] conns=[wye wye wye] Taps=[1.00, 1, 1] normhkva=37.5 !GroupMV=1 !GroupLV=183
new transformer.MAI1P_184 phases=1 windings=3 Xhl=1.86 Xht=1.86 Xlt=1.24 %Rs=[0.55 1.10 1.10]  %noloadloss=0.37 %imag=1.00 Buses=[BUSMVMAI186.1.0 BUSLVMAI184.1.0 BUSLVMAI184.0.2] kvs=[7.22 0.12 0.12] kVAs=[50.0 50.0 50.0] conns=[wye wye wye] Taps=[1.00, 1, 1] normhkva=50.0 !GroupMV=1 !GroupLV=184
new transformer.MAI1P_185 phases=1 windings=3 Xhl=1.86 Xht=1.86 Xlt=1.24 %Rs=[0.55 1.10 1.10]  %noloadloss=0.37 %imag=1.00 Buses=[BUSMVMAI218.2.0 BUSLVMAI185.1.0 BUSLVMAI185.0.2] kvs=[7.22 0.12 0.12] kVAs=[50.0 50.0 50.0] conns=[wye wye wye] Taps=[1.00, 1, 1] normhkva=50.0 !GroupMV=1 !GroupLV=185
new transformer.MAI1P_186 phases=1 windings=3 Xhl=1.80 Xht=1.80 Xlt=1.20 %Rs=[0.50 1.00 1.00] %noloadloss=0.38 %imag=1.40 Buses=[BUSMVMAI189.3.0 BUSLVMAI186.1.0 BUSLVMAI186.0.2] kvs=[7.22 0.12 0.12] kVAs=[75.0 75.0 75.0] conns=[wye wye wye] Taps=[1.00, 1, 1] normhkva=75.0 !GroupMV=1 !GroupLV=186
new transformer.MAI1P_187 phases=1 windings=3 Xhl=1.86 Xht=1.86 Xlt=1.24 %Rs=[0.55 1.10 1.10]  %noloadloss=0.37 %imag=1.00 Buses=[BUSMVMAI743.3.0 BUSLVMAI187.1.0 BUSLVMAI187.0.2] kvs=[7.22 0.12 0.12] kVAs=[50.0 50.0 50.0] conns=[wye wye wye] Taps=[1.00, 1, 1] normhkva=50.0 !GroupMV=1 !GroupLV=187
new transformer.MAI1P_188 phases=1 windings=3 Xhl=1.80 Xht=1.80 Xlt=1.20 %Rs=[0.50 1.00 1.00] %noloadloss=0.38 %imag=1.40 Buses=[BUSMVMAI194.2.0 BUSLVMAI188.1.0 BUSLVMAI188.0.2] kvs=[7.22 0.12 0.12] kVAs=[75.0 75.0 75.0] conns=[wye wye wye] Taps=[1.00, 1, 1] normhkva=75.0 !GroupMV=1 !GroupLV=188
new transformer.MAI1P_189 phases=1 windings=3 Xhl=1.49 Xht=1.49 Xlt=1.00 %Rs=[0.65 1.30 1.30] %noloadloss=0.47 %imag=1.30 Buses=[BUSMVMAI1029.1.0 BUSLVMAI189.1.0 BUSLVMAI189.0.2] kvs=[7.22 0.12 0.12] kVAs=[25.0 25.0 25.0] conns=[wye wye wye] Taps=[1.00, 1, 1] normhkva=25.0 !GroupMV=1 !GroupLV=189
new transformer.MAI1P_190 phases=1 windings=3 Xhl=1.49 Xht=1.49 Xlt=1.00 %Rs=[0.65 1.30 1.30] %noloadloss=0.47 %imag=1.30 Buses=[BUSMVMAI203.2.0 BUSLVMAI190.1.0 BUSLVMAI190.0.2] kvs=[7.22 0.12 0.12] kVAs=[25.0 25.0 25.0] conns=[wye wye wye] Taps=[1.00, 1, 1] normhkva=25.0 !GroupMV=1 !GroupLV=190
new transformer.MAI1P_191 phases=1 windings=3 Xhl=2.14 Xht=2.14 Xlt=1.43 %Rs=[0.45 0.90 0.90] %noloadloss=0.36 %imag=1.30 Buses=[BUSMVMAI733.3.0 BUSLVMAI191.1.0 BUSLVMAI191.0.2] kvs=[7.22 0.12 0.12] kVAs=[100.0 100.0 100.0] conns=[wye wye wye] Taps=[1.00, 1, 1] normhkva=100.0 !GroupMV=1 !GroupLV=191
new transformer.MAI1P_192 phases=1 windings=3 Xhl=1.49 Xht=1.49 Xlt=1.00 %Rs=[0.65 1.30 1.30] %noloadloss=0.47 %imag=1.30 Buses=[BUSMVMAI1070.1.0 BUSLVMAI192.1.0 BUSLVMAI192.0.2] kvs=[7.22 0.12 0.12] kVAs=[25.0 25.0 25.0] conns=[wye wye wye] Taps=[1.00, 1, 1] normhkva=25.0 !GroupMV=1 !GroupLV=192
new transformer.MAI1P_193 phases=1 windings=3 Xhl=1.49 Xht=1.49 Xlt=1.00 %Rs=[0.65 1.30 1.30] %noloadloss=0.47 %imag=1.30 Buses=[BUSMVMAI1017.1.0 BUSLVMAI193.1.0 BUSLVMAI193.0.2] kvs=[7.22 0.12 0.12] kVAs=[25.0 25.0 25.0] conns=[wye wye wye] Taps=[1.00, 1, 1] normhkva=25.0 !GroupMV=1 !GroupLV=193
new transformer.MAI1P_194 phases=1 windings=3 Xhl=1.80 Xht=1.80 Xlt=1.20 %Rs=[0.50 1.00 1.00] %noloadloss=0.38 %imag=1.40 Buses=[BUSMVMAI744.3.0 BUSLVMAI194.1.0 BUSLVMAI194.0.2] kvs=[7.22 0.12 0.12] kVAs=[75.0 75.0 75.0] conns=[wye wye wye] Taps=[1.00, 1, 1] normhkva=75.0 !GroupMV=1 !GroupLV=194
new transformer.MAI1P_195 phases=1 windings=3 Xhl=1.80 Xht=1.80 Xlt=1.20 %Rs=[0.50 1.00 1.00] %noloadloss=0.38 %imag=1.40 Buses=[BUSMVMAI745.3.0 BUSLVMAI195.1.0 BUSLVMAI195.0.2] kvs=[7.22 0.12 0.12] kVAs=[75.0 75.0 75.0] conns=[wye wye wye] Taps=[1.00, 1, 1] normhkva=75.0 !GroupMV=1 !GroupLV=195
new transformer.MAI1P_196 phases=1 windings=3 Xhl=2.14 Xht=2.14 Xlt=1.43 %Rs=[0.45 0.90 0.90] %noloadloss=0.36 %imag=1.30 Buses=[BUSMVMAI1072.2.0 BUSLVMAI196.1.0 BUSLVMAI196.0.2] kvs=[7.22 0.12 0.12] kVAs=[100.0 100.0 100.0] conns=[wye wye wye] Taps=[1.00, 1, 1] normhkva=100.0 !GroupMV=1 !GroupLV=196
new transformer.MAI1P_197 phases=1 windings=3 Xhl=1.71 Xht=1.71 Xlt=1.14 %Rs=[0.55 1.10 1.10] %noloadloss=0.44 %imag=1.10 Buses=[BUSMVMAI953.2.0 BUSLVMAI197.1.0 BUSLVMAI197.0.2] kvs=[7.22 0.12 0.12] kVAs=[37.5 37.5 37.5] conns=[wye wye wye] Taps=[1.00, 1, 1] normhkva=37.5 !GroupMV=1 !GroupLV=197
new transformer.MAI1P_198 phases=1 windings=3 Xhl=1.80 Xht=1.80 Xlt=1.20 %Rs=[0.50 1.00 1.00] %noloadloss=0.38 %imag=1.40 Buses=[BUSMVMAI1074.2.0 BUSLVMAI198.1.0 BUSLVMAI198.0.2] kvs=[7.22 0.12 0.12] kVAs=[75.0 75.0 75.0] conns=[wye wye wye] Taps=[1.00, 1, 1] normhkva=75.0 !GroupMV=1 !GroupLV=198
new transformer.MAI1P_199 phases=1 windings=3 Xhl=1.80 Xht=1.80 Xlt=1.20 %Rs=[0.50 1.00 1.00] %noloadloss=0.38 %imag=1.40 Buses=[BUSMVMAI1073.2.0 BUSLVMAI199.1.0 BUSLVMAI199.0.2] kvs=[7.22 0.12 0.12] kVAs=[75.0 75.0 75.0] conns=[wye wye wye] Taps=[1.00, 1, 1] normhkva=75.0 !GroupMV=1 !GroupLV=199
new transformer.MAI1P_200 phases=1 windings=3 Xhl=1.80 Xht=1.80 Xlt=1.20 %Rs=[0.50 1.00 1.00] %noloadloss=0.38 %imag=1.40 Buses=[BUSMVMAI1082.1.0 BUSLVMAI200.1.0 BUSLVMAI200.0.2] kvs=[7.22 0.12 0.12] kVAs=[75.0 75.0 75.0] conns=[wye wye wye] Taps=[1.00, 1, 1] normhkva=75.0 !GroupMV=1 !GroupLV=200
...
