test/TEST190523/MAI_LinesLV.dss
new line.LV1FMAI1 bus1=BUSLVMAI579.1.2 bus2=BUSLVMAI214.1.2 Linecode=TRPX2/0AAAC length=2.2838 units=m !1ph_basekV=0.12 Group=1
new line.LV1FMAI2 bus1=BUSLVMAI580.1.2 bus2=BUSLVMAI579.1.2 Linecode=TRPX2/0AAAC length=47.7563 units=m !1ph_basekV=0.12 Group=1
new line.LV1FMAI3 bus1=BUSLVMAI584.1.2 bus2=BUSLVMAI579.1.2 Linecode=TRPX2/0AAAC length=47.5509 units=m !1ph_basekV=0.12 Group=1
new line.LV1FMAI4 bus1=BUSLVMAI611.1.2 bus2=BUSLVMAI579.1.2 Linecode=TRPX2/0AAAC length=9.6543 units=m !1ph_basekV=0.12 Group=1
new line.LV1FMAI5 bus1=BUSLVMAI616.1.2 bus2=BUSLVMAI579.1.2 Linecode=TRPX2/0AAAC length=19.7348 units=m !1ph_basekV=0.12 Group=1
new line.LV1FMAI6 bus1=BUSLVMAI581.1.2 bus2=BUSLVMAI580.1.2 Linecode=TRPX2/0AAAC length=44.4976 units=m !1ph_basekV=0.12 Group=1
new line.LV1FMAI7 bus1=BUSLVMAI610.1.2 bus2=BUSLVMAI580.1.2 Linecode=TRPX2/0AAAC length=19.6864 units=m !1ph_basekV=0.12 Group=1
new line.LV1FMAI8 bus1=BUSLVMAI619.1.2 bus2=BUSLVMAI580.1.2 Geometry=1FLV2/0AAAC2/0AAAC length=9.4765 units=m !1ph_basekV=0.12 Group=1
new line.LV1FMAI9 bus1=BUSLVMAI624.1.2 bus2=BUSLVMAI580.1.2 Linecode=TRPX2/0AAAC length=1.5888 units=m !1ph_basekV=0.12 Group=1
new line.LV1FMAI10 bus1=BUSLVMAI642.1.2 bus2=BUSLVMAI580.1.2 Linecode=TRPX2/0AAAC length=19.6865 units=m !1ph_basekV=0.12 Group=1
new line.LV1FMAI11 bus1=BUSLVMAI582.1.2 bus2=BUSLVMAI581.1.2 Linecode=TRPX2/0AAAC length=38.5152 units=m !1ph_basekV=0.12 Group=1
new line.LV1FMAI12 bus1=BUSLVMAI617.1.2 bus2=BUSLVMAI581.1.2 Linecode=TRPX2/0AAAC length=8.0542 units=m !1ph_basekV=0.12 Group=1
new line.LV1FMAI13 bus1=BUSLVMAI618.1.2 bus2=BUSLVMAI581.1.2 Linecode=TRPX2/0AAAC length=2.3204 units=m !1ph_basekV=0.12 Group=1
new line.LV1FMAI14 bus1=BUSLVMAI620.1.2 bus2=BUSLVMAI581.1.2 Linecode=TRPX2/0AAAC length=16.1925 units=m !1ph_basekV=0.12 Group=1
new line.LV1FMAI15 bus1=BUSLVMAI621.1.2 bus2=BUSLVMAI581.1.2 Linecode=TRPX2/0AAAC length=22.7351 units=m !1ph_basekV=0.12 Group=1
new line.LV1FMAI16 bus1=BUSLVMAI625.1.2 bus2=BUSLVMAI581.1.2 Linecode=TRPX2/0AAAC length=8.0542 units=m !1ph_basekV=0.12 Group=1
new line.LV1FMAI17 bus1=BUSLVMAI583.1.2 bus2=BUSLVMAI582.1.2 Linecode=TRPX2/0AAAC length=34.3343 units=m !1ph_basekV=0.12 Group=1
new line.LV1FMAI18 bus1=BUSLVMAI609.1.2 bus2=BUSLVMAI582.1.2 Geometry=1FLV2/0AAAC2/0AAAC length=13.9933 units=m !1ph_basekV=0.12 Group=1
new line.LV1FMAI19 bus1=BUSLVMAI615.1.2 bus2=BUSLVMAI582.1.2 Linecode=TRPX2/0AAAC length=8.3619 units=m !1ph_basekV=0.12 Group=1
new line.LV1FMAI20 bus1=BUSLVMAI638.1.2 bus2=BUSLVMAI582.1.2 Linecode=TRPX2/0AAAC length=13.9933 units=m !1ph_basekV=0.12 Group=1
new line.LV1FMAI21 bus1=BUSLVMAI653.1.2 bus2=BUSLVMAI582.1.2 Linecode=TRPX2/0AAAC length=12.3474 units=m !1ph_basekV=0.12 Group=1
new line.LV1FMAI22 bus1=BUSLVMAI608.1.2 bus2=BUSLVMAI583.1.2 Linecode=TRPX2/0AAAC length=18.1477 units=m !1ph_basekV=0.12 Group=1
new line.LV1FMAI23 bus1=BUSLVMAI623.1.2 bus2=BUSLVMAI583.1.2 Linecode=TRPX2/0AAAC length=8.8679 units=m !1ph_basekV=0.12 Group=1
new line.LV1FMAI24 bus1=BUSLVMAI631.1.2 bus2=BUSLVMAI583.1.2 Linecode=TRPX2/0AAAC length=16.6823 units=m !1ph_basekV=0.12 Group=1
new line.LV1FMAI25 bus1=BUSLVMAI632.1.2 bus2=BUSLVMAI583.1.2 Linecode=TRPX2/0AAAC length=12.4613 units=m !1ph_basekV=0.12 Group=1
new line.LV1FMAI26 bus1=BUSLVMAI633.1.2 bus2=BUSLVMAI583.1.2 Linecode=TRPX2/0AAAC length=14.1440 units=m !1ph_basekV=0.12 Group=1
new line.LV1FMAI27 bus1=BUSLVMAI634.1.2 bus2=BUSLVMAI583.1.2 Linecode=TRPX2/0AAAC length=12.4614 units=m !1ph_basekV=0.12 Group=1
new line.LV1FMAI28 bus1=BUSLVMAI637.1.2 bus2=BUSLVMAI583.1.2 Linecode=TRPX2/0AAAC length=12.4613 units=m !1ph_basekV=0.12 Group=1
new line.LV1FMAI29 bus1=BUSLVMAI585.1.2 bus2=BUSLVMAI584.1.2 Linecode=TRPX2/0AAAC length=67.5727 units=m !1ph_basekV=0.12 Group=1
new line.LV1FMAI30 bus1=BUSLVMAI601.1.2 bus2=BUSLVMAI584.1.2 Linecode=TRPX2/0AAAC length=33.6759 units=m !1ph_basekV=0.12 Group=1
new line.LV1FMAI31 bus1=BUSLVMAI603.1.2 bus2=BUSLVMAI584.1.2 Linecode=TRPX2/0AAAC length=33.6759 units=m !1ph_basekV=0.12 Group=1
new line.LV1FMAI32 bus1=BUSLVMAI640.1.2 bus2=BUSLVMAI584.1.2 Linecode=TRPX2/0AAAC length=8.0379 units=m !1ph_basekV=0.12 Group=1
new line.LV1FMAI33 bus1=BUSLVMAI586.1.2 bus2=BUSLVMAI585.1.2 Linecode=TRPX2/0AAAC length=37.0929 units=m !1ph_basekV=0.12 Group=1
new line.LV1FMAI34 bus1=BUSLVMAI600.1.2 bus2=BUSLVMAI585.1.2 Linecode=TRPX2/0AAAC length=18.5986 units=m !1ph_basekV=0.12 Group=1
new line.LV1FMAI35 bus1=BUSLVMAI630.1.2 bus2=BUSLVMAI585.1.2 Linecode=TRPX2/0AAAC length=18.2559 units=m !1ph_basekV=0.12 Group=1
new line.LV1FMAI36 bus1=BUSLVMAI635.1.2 bus2=BUSLVMAI585.1.2 Geometry=1FLV2/0AAAC2/0AAAC length=18.2558 units=m !1ph_basekV=0.12 Group=1
new line.LV1FMAI37 bus1=BUSLVMAI599.1.2 bus2=BUSLVMAI586.1.2 Linecode=TRPX2/0AAAC length=0.9814 units=m !1ph_basekV=0.12 Group=1
new line.LV1FMAI38 bus1=BUSLVMAI587.1.2 bus2=BUSLVMAI210.1.2 Linecode=TRPX2/0AAAC length=2.4232 units=m !1ph_basekV=0.12 Group=2
...