test/TEST190523/MAI_EXP_LOSSES_NOPV.CSV
Element,  Total(W), Total(var),  I2R(W), I2X(var), No-load(W), No-load(var)
Line.MV3PMAI0, 33.1091, 86.12128, 33.1091, 86.12128, 0, 0
Line.MV3PMAI1, 74.41645, 193.6193, 74.41645, 193.6193, 0, 0
Line.MV3PMAI2, 759.6598, 1976.517, 759.6598, 1976.517, 0, 0
Line.MV3PMAI3, 31.78627, 82.70255, 31.78627, 82.70255, 0, 0
Line.MV3PMAI4, 717.0555, 1869.579, 717.0555, 1869.579, 0, 0
Line.MV1PMAI5, 0.0009509636, -3.745051, 0.0009509636, -3.745051, 0, 0
Line.MV3PMAI6, 131.7788, 343.2252, 131.7788, 343.2252, 0, 0
Line.MV1PMAI7, 0.09797682, -1.445008, 0.09797682, -1.445008, 0, 0
Line.MV1PMAI8, 3.560032E-008, -2.617635, 3.560032E-008, -2.617635, 0, 0
Line.MV3PMAI9, 746.9089, 971.2852, 746.9089, 971.2852, 0, 0
Line.MV3PMAI10, 463.5127, 1199.19, 463.5127, 1199.19, 0, 0
Line.MV3PMAI11, 0.0003085795, -7.371351, 0.0003085795, -7.371351, 0, 0
Line.MV3PMAI12, 31.10727, 20.80257, 31.10727, 20.80257, 0, 0
Line.MV3PMAI13, 15.55357, 10.40086, 15.55357, 10.40086, 0, 0
Line.MV1PMAI14, 0.2538302, -3.743275, 0.2538302, -3.743275, 0, 0
Line.MV3PMAI15, 377.4886, 976.7494, 377.4886, 976.7494, 0, 0
Line.MV3PMAI16, -1.360069E-005, -0.4916571, -1.360069E-005, -0.4916571, 0, 0
Line.MV1PMAI17, 0.0006974079, -20.87459, 0.0006974079, -20.87459, 0, 0
Line.MV1PMAI18, 0.1805197, -2.661872, 0.1805197, -2.661872, 0, 0
Line.MV1PMAI19, 5.492653E-006, -23.37149, 5.492653E-006, -23.37149, 0, 0
Line.MV3PMAI20, 0.0004188584, -150.8912, 0.0004188584, -150.8912, 0, 0
Line.MV3PMAI21, 15.5537, 10.40171, 15.5537, 10.40171, 0, 0
Line.MV3PMAI22, 3.335932, 4.211599, 3.335932, 4.211599, 0, 0
Line.MV3PMAI23, 0.004780169, -12.98048, 0.004780169, -12.98048, 0, 0
Line.MV3PMAI24, 0.04597604, -13.79797, 0.04597604, -13.79797, 0, 0
Line.MV3PMAI25, 139.4275, 360.7422, 139.4275, 360.7422, 0, 0
Line.MV3PMAI26, 0.07767509, -23.30568, 0.07767509, -23.30568, 0, 0
Line.MV3PMAI27, 0.08270081, -25.58624, 0.08270081, -25.58624, 0, 0
Line.MV3PMAI28, 0.0009552745, -25.8843, 0.0009552745, -25.8843, 0, 0
Line.MV1PMAI29, 0.008554317, -9.536564, 0.008554317, -9.536564, 0, 0
Line.MV1PMAI30, 0.0008690143, -55.60515, 0.0008690143, -55.60515, 0, 0
Line.MV1PMAI31, 0.1517354, -2.342757, 0.1517354, -2.342757, 0, 0
Line.MV1PMAI32, 0.2365402, -3.816788, 0.2365402, -3.816788, 0, 0
Line.MV3PMAI33, -2.291181E-007, -23.03725, -2.291181E-007, -23.03725, 0, 0
Line.MV3PMAI34, 0.0003041902, -95.21654, 0.0003041902, -95.21654, 0, 0
Line.MV1PMAI35, 2.495806E-007, -0.8938027, 2.495806E-007, -0.8938027, 0, 0
Line.MV1PMAI36, 2.072726E-005, -21.46901, 2.072726E-005, -21.46901, 0, 0
Line.MV1PMAI37, 0.008751749, -22.97558, 0.008751749, -22.97558, 0, 0
Line.MV1PMAI38, 0.1354299, -89.77479, 0.1354299, -89.77479, 0, 0
Line.MV3PMAI39, 249.8509, 646.8136, 249.8509, 646.8136, 0, 0
Line.MV3PMAI40, 351.8813, 910.9565, 351.8813, 910.9565, 0, 0
Line.MV3PMAI41, -1.910813E-008, -13.69528, -1.910813E-008, -13.69528, 0, 0
Line.MV3PMAI42, 369.8319, 957.4352, 369.8319, 957.4352, 0, 0
Line.MV3PMAI43, 433.0977, 1121.382, 433.0977, 1121.382, 0, 0
Line.MV3PMAI44, 0.0001100405, -15.73537, 0.0001100405, -15.73537, 0, 0
Line.MV3PMAI45, 445.3406, 1152.89, 445.3406, 1152.89, 0, 0
Line.MV3PMAI46, 5.226724E-007, -11.32834, 5.226724E-007, -11.32834, 0, 0
Line.MV3PMAI47, 1.442831E-006, -11.87138, 1.442831E-006, -11.87138, 0, 0
Line.MV3PMAI48, -2.958898E-007, -11.30774, -2.958898E-007, -11.30774, 0, 0
Line.MV3PMAI49, 0.000642653, -371.1521, 0.000642653, -371.1521, 0, 0
Line.MV3PMAI50, 42.99367, 111.3049, 42.99367, 111.3049, 0, 0
Line.MV3PMAI51, 444.0231, 1149.524, 444.0231, 1149.524, 0, 0
Line.MV3PMAI52, -1.950048E-007, -12.91745, -1.950048E-007, -12.91745, 0, 0
Line.MV3PMAI53, 0.0001250775, -25.15335, 0.0001250775, -25.15335, 0, 0
Line.MV3PMAI54, 0.02419469, -20.98165, 0.02419469, -20.98165, 0, 0
Line.MV3PMAI55, 339.4413, 879.1825, 339.4413, 879.1825, 0, 0
Line.MV3PMAI56, 0.02512794, -21.779, 0.02512794, -21.779, 0, 0
Line.MV3PMAI57, 393.4082, 1018.97, 393.4082, 1018.97, 0, 0
Line.MV3PMAI58, 0.03479813, -30.13807, 0.03479813, -30.13807, 0, 0
Line.MV3PMAI59, 0.02933719, -25.38856, 0.02933719, -25.38856, 0, 0
Line.MV1PMAI60, 0.09706821, -4.342043, 0.09706821, -4.342043, 0, 0
Line.MV3PMAI61, 8.980108, 23.27918, 8.980108, 23.27918, 0, 0
Line.MV1PMAI62, 2.15516E-005, -1.284972, 2.15516E-005, -1.284972, 0, 0
Line.MV3PMAI63, 332.0253, 860.7167, 332.0253, 860.7167, 0, 0
Line.MV3PMAI64, 450.4625, 1165.882, 450.4625, 1165.882, 0, 0
Line.MV3PMAI65, 102.1387, 264.7751, 102.1387, 264.7751, 0, 0
Line.MV3PMAI66, 0.0005418302, -25.41662, 0.0005418302, -25.41662, 0, 0
Line.MV3PMAI67, 0.0005078293, -23.57022, 0.0005078293, -23.57022, 0, 0
Line.MV1PMAI68, 0.003779572, -0.132214, 0.003779572, -0.132214, 0, 0
Line.MV3PMAI69, 354.8536, 918.5301, 354.8536, 918.5301, 0, 0
Line.MV1PMAI70, 0.002284919, -64.39532, 0.002284919, -64.39532, 0, 0
Line.MV1PMAI71, 0.1653486, -7.395311, 0.1653486, -7.395311, 0, 0
Line.MV1PMAI72, 0.1735702, -7.761647, 0.1735702, -7.761647, 0, 0
Line.MV3PMAI73, 0.165895, -12.80893, 0.165895, -12.80893, 0, 0
Line.MV3PMAI74, 344.9789, 890.8981, 344.9789, 890.8981, 0, 0
Line.MV3PMAI75, 0.541312, -496.1703, 0.541312, -496.1703, 0, 0
Line.MV3PMAI76, 397.5147, 1026.537, 397.5147, 1026.537, 0, 0
Line.MV3PMAI77, 0.05832003, -22.6387, 0.05832003, -22.6387, 0, 0
Line.MV3PMAI78, 163.1351, 379.4431, 163.1351, 379.4431, 0, 0
Line.MV3PMAI79, 81.56736, 189.7193, 81.56736, 189.7193, 0, 0
Line.MV3PMAI80, 0.03972863, -5.581697, 0.03972863, -5.581697, 0, 0
Line.MV3PMAI81, 8.980137, 23.27922, 8.980137, 23.27922, 0, 0
Line.MV3PMAI82, 0.05977508, -99.0118, 0.05977508, -99.0118, 0, 0
Line.MV3PMAI83, 167.3081, 412.904, 167.3081, 412.904, 0, 0
Line.MV3PMAI84, 83.65429, 206.4534, 83.65429, 206.4534, 0, 0
Line.MV3PMAI85, 802.663, 2088.38, 802.663, 2088.38, 0, 0
Line.MV3PMAI86, 83.65422, 206.4518, 83.65422, 206.4518, 0, 0
Line.MV1PMAI87, 0.4971488, -0.6199696, 0.4971488, -0.6199696, 0, 0
Line.MV3PMAI88, 158.1472, 409.1403, 158.1472, 409.1403, 0, 0
Line.MV3PMAI89, 81.56752, 189.7232, 81.56752, 189.7232, 0, 0
Line.MV3PMAI90, 4.716827E-007, -12.84285, 4.716827E-007, -12.84285, 0, 0
Line.MV3PMAI91, 1.625169E-005, -43.53481, 1.625169E-005, -43.53481, 0, 0
Line.MV3PMAI92, 147.054, 185.6608, 147.054, 185.6608, 0, 0
Line.MV3PMAI93, 60.91972, 76.93881, 60.91972, 76.93881, 0, 0
Line.MV3PMAI94, 0.01142882, -187.6255, 0.01142882, -187.6255, 0, 0
Line.MV3PMAI95, 36.42876, 45.9914, 36.42876, 45.9914, 0, 0
Line.MV3PMAI96, 75.71599, 96.66956, 75.71599, 96.66956, 0, 0
Line.MV3PMAI97, 126.0908, 160.9897, 126.0908, 160.9897, 0, 0
Line.MV3PMAI98, 0.4617427, -9.486225, 0.4617427, -9.486225, 0, 0
Line.MV1PMAI99, 1.142543E-007, -4.33238, 1.142543E-007, -4.33238, 0, 0
Line.MV3PMAI100, 120.3426, 148.8778, 120.3426, 148.8778, 0, 0
Line.MV3PMAI101, 116.4454, 146.515, 116.4454, 146.515, 0, 0
Line.MV1PMAI102, 0.0397563, -0.08434852, 0.0397563, -0.08434852, 0, 0
Line.MV1PMAI103, 1.95166, -4.140276, 1.95166, -4.140276, 0, 0
Line.MV1PMAI104, 0.03873548, -0.08356029, 0.03873548, -0.08356029, 0, 0
Line.MV1PMAI105, 0.03975626, -0.08434834, 0.03975626, -0.08434834, 0, 0
Line.MV1PMAI106, 0.08345916, -0.1590961, 0.08345916, -0.1590961, 0, 0
Line.MV3PMAI107, 117.9133, 143.1508, 117.9133, 143.1508, 0, 0
Line.MV3PMAI108, 119.0367, 144.5222, 119.0367, 144.5222, 0, 0
Line.MV3PMAI109, 128.5419, 156.071, 128.5419, 156.071, 0, 0
Line.MV1PMAI110, 0.2157236, -4.482909, 0.2157236, -4.482909, 0, 0
Line.MV3PMAI111, 92.90976, 109.8218, 92.90976, 109.8218, 0, 0
Line.MV3PMAI112, 0.002605028, -72.94031, 0.002605028, -72.94031, 0, 0
Line.MV1PMAI113, 1.807924, -3.445898, 1.807924, -3.445898, 0, 0
Line.MV1PMAI114, 0.6183127, -1.178357, 0.6183127, -1.178357, 0, 0
Line.MV1PMAI115, 0.08486185, -0.1617624, 0.08486185, -0.1617624, 0, 0
Line.MV1PMAI116, 1.197017, -4.280174, 1.197017, -4.280174, 0, 0
Line.MV1PMAI117, 0.004134227, -1.976332, 0.004134227, -1.976332, 0, 0
Line.MV1PMAI118, 0.01279558, -3.369289, 0.01279558, -3.369289, 0, 0
Line.MV1PMAI119, 0.2685157, -8.912683, 0.2685157, -8.912683, 0, 0
Line.MV1PMAI120, 2.735773, -5.987279, 2.735773, -5.987279, 0, 0
Line.MV1PMAI121, 0.04805509, -6.610054, 0.04805509, -6.610054, 0, 0
Line.MV1PMAI122, 0.04750359, -4.75574, 0.04750359, -4.75574, 0, 0
Line.MV1PMAI123, 0.04259436, -6.185836, 0.04259436, -6.185836, 0, 0
Line.MV1PMAI124, 3.607337E-005, -2.185413, 3.607337E-005, -2.185413, 0, 0
Line.MV1PMAI125, 0.6081581, -6.393892, 0.6081581, -6.393892, 0, 0
Line.MV1PMAI126, 0.002537585, -51.55502, 0.002537585, -51.55502, 0, 0
Line.MV1PMAI127, 0.001041548, -55.81959, 0.001041548, -55.81959, 0, 0
Line.MV3PMAI128, 87.95843, 101.6085, 87.95843, 101.6085, 0, 0
Line.MV1PMAI129, 0.006173584, -29.47338, 0.006173584, -29.47338, 0, 0
Line.MV1PMAI130, 0.00206335, -25.59241, 0.00206335, -25.59241, 0, 0
Line.MV1PMAI131, 0.1184543, -141.0528, 0.1184543, -141.0528, 0, 0
Line.MV1PMAI132, 0.03156623, -8.308576, 0.03156623, -8.308576, 0, 0
Line.MV1PMAI133, 0.01995964, -5.25117, 0.01995964, -5.25117, 0, 0
Line.MV1PMAI134, 0.05815915, -5.819426, 0.05815915, -5.819426, 0, 0
Line.MV1PMAI135, 0.5287964, -5.558857, 0.5287964, -5.558857, 0, 0
Line.MV1PMAI136, 0.1732685, -6.875365, 0.1732685, -6.875365, 0, 0
Line.MV1PMAI137, 0.03489315, -4.361435, 0.03489315, -4.361435, 0, 0
Line.MV1PMAI138, 0.01931103, -5.078711, 0.01931103, -5.078711, 0, 0
Line.MV1PMAI139, 0.02179426, -5.729645, 0.02179426, -5.729645, 0, 0
Line.MV1PMAI140, 0.0001701418, -7.531042, 0.0001701418, -7.531042, 0, 0
Line.MV1PMAI141, 0.0001353706, -5.847446, 0.0001353706, -5.847446, 0, 0
Line.MV3PMAI142, 0.001667215, -3.948313, 0.001667215, -3.948313, 0, 0
Line.MV3PMAI143, 0.00449634, -124.6578, 0.00449634, -124.6578, 0, 0
Line.MV3PMAI144, 115.1032, 132.9736, 115.1032, 132.9736, 0, 0
Line.MV3PMAI145, 105.5083, 123.1906, 105.5083, 123.1906, 0, 0
Line.MV3PMAI146, 4.022632E-007, -21.12016, 4.022632E-007, -21.12016, 0, 0
Line.MV1PMAI147, 0.05555874, -6.008335, 0.05555874, -6.008335, 0, 0
Line.MV1PMAI148, 0.0001354802, -5.73655, 0.0001354802, -5.73655, 0, 0
Line.MV3PMAI149, 49.20197, 57.52531, 49.20197, 57.52531, 0, 0
Line.MV3PMAI150, 0.01766862, -10.60467, 0.01766862, -10.60467, 0, 0
Line.MV1PMAI151, 0.001105264, -0.1386055, 0.001105264, -0.1386055, 0, 0
Line.MV1PMAI152, 0.02477439, -3.316674, 0.02477439, -3.316674, 0, 0
Line.MV1PMAI153, 0.02150258, -3.026193, 0.02150258, -3.026193, 0, 0
Line.MV1PMAI154, 0.0358327, -5.388374, 0.0358327, -5.388374, 0, 0
Line.MV1PMAI155, 0.03602484, -6.167292, 0.03602484, -6.167292, 0, 0
Line.MV1PMAI156, 8.538796E-005, -5.249053, 8.538796E-005, -5.249053, 0, 0
Line.MV1PMAI157, 0.0006939556, -7.320551, 0.0006939556, -7.320551, 0, 0
Line.MV1PMAI158, 3.180667E-006, -0.07716296, 3.180667E-006, -0.07716296, 0, 0
Line.MV3PMAI159, -2.173955E-007, -19.67325, -2.173955E-007, -19.67325, 0, 0
Line.MV3PMAI160, 1.467198, -13.53398, 1.467198, -13.53398, 0, 0
Line.MV3PMAI161, 24.9556, 24.65717, 24.9556, 24.65717, 0, 0
Line.MV3PMAI162, 0.1360764, -1.152897, 0.1360764, -1.152897, 0, 0
Line.MV3PMAI163, 0.4059262, -32.59571, 0.4059262, -32.59571, 0, 0
Line.MV3PMAI164, 61.62, 60.90928, 61.62, 60.90928, 0, 0
Line.MV3PMAI165, 2.332896, -30.48237, 2.332896, -30.48237, 0, 0
Line.MV3PMAI166, 2.354805, -30.76583, 2.354805, -30.76583, 0, 0
Line.MV1PMAI167, 0.6471401, -4.252744, 0.6471401, -4.252744, 0, 0
Line.MV3PMAI168, 0.4254449, -26.06923, 0.4254449, -26.06923, 0, 0
Line.MV1PMAI169, 3.981753E-007, -1.635976, 3.981753E-007, -1.635976, 0, 0
Line.MV3PMAI170, 0.3065823, -24.61552, 0.3065823, -24.61552, 0, 0
Line.MV3PMAI171, 0.01488025, -24.28914, 0.01488025, -24.28914, 0, 0
Line.MV3PMAI172, 0.01674695, -27.31782, 0.01674695, -27.31782, 0, 0
Line.MV3PMAI173, 0.435805, -29.97262, 0.435805, -29.97262, 0, 0
Line.MV3PMAI174, 0.2552364, -18.4426, 0.2552364, -18.4426, 0, 0
Line.MV1PMAI175, 0.0001167308, -13.29449, 0.0001167308, -13.29449, 0, 0
Line.MV3PMAI176, 0.5158635, -309.3109, 0.5158635, -309.3109, 0, 0
Line.MV3PMAI177, 0.01424235, -22.72841, 0.01424235, -22.72841, 0, 0
Line.MV3PMAI178, 0.01440521, -22.98085, 0.01440521, -22.98085, 0, 0
Line.MV3PMAI179, 0.008616354, -16.46844, 0.008616354, -16.46844, 0, 0
Line.MV3PMAI180, 0.002086715, -41.62039, 0.002086715, -41.62039, 0, 0
Line.MV1PMAI181, 0.4901038, -5.406513, 0.4901038, -5.406513, 0, 0
Line.MV3PMAI182, 0.1563554, -30.66137, 0.1563554, -30.66137, 0, 0
Line.MV3PMAI183, 0.183716, -36.01931, 0.183716, -36.01931, 0, 0
Line.MV3PMAI184, 53.36733, 52.75631, 53.36733, 52.75631, 0, 0
Line.MV3PMAI185, 1.934155E-007, -17.79414, 1.934155E-007, -17.79414, 0, 0
Line.MV3PMAI186, 0.0006364985, -16.11318, 0.0006364985, -16.11318, 0, 0
Line.MV3PMAI187, 66.65606, 65.96211, 66.65606, 65.96211, 0, 0
Line.MV3PMAI188, 0.02672993, -23.7847, 0.02672993, -23.7847, 0, 0
Line.MV3PMAI189, 0.2552202, -18.87519, 0.2552202, -18.87519, 0, 0
Line.MV1PMAI190, 0.001247139, -1.63414, 0.001247139, -1.63414, 0, 0
Line.MV3PMAI191, 0.2279552, -24.99122, 0.2279552, -24.99122, 0, 0
Line.MV3PMAI192, 0.002357068, -8.302871, 0.002357068, -8.302871, 0, 0
Line.MV3PMAI193, 0.01183208, -1.296089, 0.01183208, -1.296089, 0, 0
Line.MV3PMAI194, 0.3622555, -26.88651, 0.3622555, -26.88651, 0, 0
Line.MV3PMAI195, 0.000213068, -255.267, 0.000213068, -255.267, 0, 0
Line.MV1PMAI196, 0.0003308638, -1.73545, 0.0003308638, -1.73545, 0, 0
Line.MV3PMAI197, 0.4361426, -32.65804, 0.4361426, -32.65804, 0, 0
Line.MV3PMAI198, 5.374275E-007, -5.652935, 5.374275E-007, -5.652935, 0, 0
Line.MV3PMAI199, 3.324367E-007, -11.80395, 3.324367E-007, -11.80395, 0, 0
...
Transformer.HVMV, -6.752089E-009, 53461.62, -6.752089E-009, 53461.62, 0, 0
Transformer.MAI1P_1, 288.6974, 1063.178, 0.2396439, 0.4394472, 288.4577, 1062.739
Transformer.MAI1P_2, 188.7114, 507.2473, 2.209156, 3.187133, 186.5023, 504.0602
Transformer.MAI1P_3, 364.4049, 1315.605, 0.2485117, 0.5963233, 364.1564, 1315.009
Transformer.MAI1P_4, 248.8365, 593.9776, 59.9674, 83.52051, 188.8691, 510.4571
Transformer.MAI1P_5, 176.5214, 428.1376, 10.87065, 14.01075, 165.6508, 414.1269
Transformer.MAI1P_6, 287.7824, 1059.809, 0.2388843, 0.4380544, 287.5435, 1059.371
Transformer.MAI1P_7, 167.1021, 417.7024, 0.08791938, 0.1670551, 167.0141, 417.5353
Transformer.MAI1P_8, 157.4766, 363.65, 39.70473, 37.89799, 117.7719, 325.752
Transformer.MAI1P_9, 233.9427, 569.0638, 48.92314, 69.01094, 185.0196, 500.0529
Transformer.MAI1P_10, 215.0363, 542.8194, 29.71023, 41.93828, 185.326, 500.8812
Transformer.MAI1P_11, 188.2496, 508.5212, 0.259867, 0.4409658, 187.9897, 508.0802
Transformer.MAI1P_12, 293.1754, 1071.594, 3.939938, 5.990161, 289.2355, 1065.604
Transformer.MAI1P_13, 293.9998, 1082.115, 0.5142744, 0.8527997, 293.4855, 1081.262
Transformer.MAI1P_14, 294.4534, 1082.604, 1.055713, 1.664944, 293.3977, 1080.939
Transformer.MAI1P_15, 191.8002, 516.4721, 1.53253, 2.235192, 190.2676, 514.2369
Transformer.MAI1P_16, 85.0533, 212.5106, 0.07763324, 0.07141817, 84.97567, 212.4392
Transformer.MAI1P_17, 302.5866, 498.5154, 186.7621, 178.1499, 115.8244, 320.3654
Transformer.MAI1P_18, 288.0956, 1060.962, 0.2391443, 0.4385312, 287.8564, 1060.524
Transformer.MAI1P_19, 187.4301, 506.0108, 0.4880113, 0.7620309, 186.9421, 505.2488
Transformer.MAI1P_20, 104.9868, 224.8869, 20.41986, 13.46942, 84.56699, 211.4175
Transformer.MAI1P_21, 288.7017, 1063.194, 0.2396474, 0.4394537, 288.462, 1062.755
Transformer.MAI1P_22, 187.7597, 446.0982, 18.81727, 23.7422, 168.9424, 422.356
Transformer.MAI1P_23, 291.9975, 1067.152, 3.987038, 6.060471, 288.0104, 1061.091
Transformer.MAI1P_24, 289.0118, 1063.326, 0.7023268, 1.133448, 288.3095, 1062.193
Transformer.MAI1P_25, 301.023, 1079.807, 13.41674, 20.20496, 287.6062, 1059.602
Transformer.MAI1P_26, 295.963, 1075.439, 6.881807, 10.40294, 289.0812, 1065.036
Transformer.MAI1P_27, 119.5277, 330.4699, 0.09469967, 0.1231998, 119.433, 330.3467
Transformer.MAI1P_28, 288.0961, 1060.964, 0.2391447, 0.4385319, 287.8569, 1060.525
Transformer.MAI1P_29, 337.0453, 1128.578, 51.84793, 77.8512, 285.1973, 1050.727
Transformer.MAI1P_30, 166.9244, 417.2582, 0.08782588, 0.1668774, 166.8365, 417.0913
Transformer.MAI1P_31, 288.5406, 1062.601, 0.2395137, 0.4392085, 288.301, 1062.162
Transformer.MAI1P_32, 229.9315, 568.5799, 40.91792, 57.73246, 189.0136, 510.8474
Transformer.MAI1P_33, 186.8429, 504.9327, 0.09469448, 0.2077206, 186.7482, 504.7249
Transformer.MAI1P_34, 443.2248, 629.5516, 328.4541, 312.1008, 114.7707, 317.4508
Transformer.MAI1P_35, 166.7465, 416.8136, 0.0877323, 0.1666996, 166.6588, 416.6469
Transformer.MAI1P_36, 166.7422, 416.8029, 0.08773004, 0.1666953, 166.6545, 416.6362
Transformer.MAI1P_37, 289.2342, 1062.62, 1.400589, 2.180721, 287.8336, 1060.439
Transformer.MAI1P_38, 870.0725, 722.4577, 789.5344, 521.1122, 80.53819, 201.3455
Transformer.MAI1P_39, 208.1842, 535.9623, 20.69583, 29.237, 187.4884, 506.7253
Transformer.MAI1P_40, 233.8477, 569.4583, 48.26766, 67.8907, 185.58, 501.5676
Transformer.MAI1P_41, 291.7072, 1074.263, 0.2421423, 0.4440287, 291.465, 1073.819
Transformer.MAI1P_42, 295.8379, 1080.9, 4.17099, 6.337415, 291.6669, 1074.562
Transformer.MAI1P_43, 295.1985, 1080.031, 3.490432, 5.316584, 291.7081, 1074.714
Transformer.MAI1P_44, 291.4912, 1063.878, 4.585808, 6.857894, 286.9054, 1057.02
Transformer.MAI1P_45, 172.8866, 424.0043, 6.861703, 8.94193, 166.0249, 415.0623
Transformer.MAI1P_46, 287.696, 1059.491, 0.2388126, 0.4379229, 287.4572, 1059.053
Transformer.MAI1P_47, 166.752, 416.8273, 0.08773519, 0.1667051, 166.6642, 416.6606
Transformer.MAI1P_48, 256.7955, 531.0351, 92.05829, 119.1921, 164.7372, 411.843
Transformer.MAI1P_49, 291.8219, 1074.685, 0.2422375, 0.4442033, 291.5797, 1074.241
Transformer.MAI1P_50, 491.2416, 677.6263, 375.4596, 357.3781, 115.7821, 320.2483
Transformer.MAI1P_51, 194.3428, 400.2334, 75.79182, 72.32653, 118.551, 327.9069
Transformer.MAI1P_52, 186.9911, 505.3331, 0.09476958, 0.2078853, 186.8963, 505.1252
Transformer.MAI1P_53, 288.0765, 1060.892, 0.2391285, 0.4385022, 287.8374, 1060.454
Transformer.MAI1P_54, 149.259, 355.5974, 31.60904, 30.18265, 117.65, 325.4148
Transformer.MAI1P_55, 292.9124, 1077.096, 0.9780438, 1.548034, 291.9344, 1075.548
Transformer.MAI1P_56, 203.2398, 526.7988, 17.44888, 24.66108, 185.791, 502.1377
Transformer.MAI1P_57, 287.5896, 1059.099, 0.2387243, 0.437761, 287.3509, 1058.661
Transformer.MAI1P_58, 166.7742, 416.883, 0.0877469, 0.1667273, 166.6865, 416.7162
Transformer.MAI1P_59, 291.822, 1074.685, 0.2422375, 0.4442034, 291.5797, 1074.241
Transformer.MAI1P_60, 198.4526, 524.2768, 9.397683, 13.31747, 189.0549, 510.9593
Transformer.MAI1P_61, 534.5875, 891.9738, 369.0498, 478.1296, 165.5377, 413.8443
Transformer.MAI1P_62, 178.0708, 432.3346, 10.70586, 13.9223, 167.3649, 418.4122
Transformer.MAI1P_63, 435.7603, 1285.384, 146.5501, 219.8724, 289.2102, 1065.511
Transformer.MAI1P_64, 191.4442, 513.0553, 3.429454, 4.90725, 188.0148, 508.1481
Transformer.MAI1P_65, 168.8265, 422.013, 0.08882668, 0.168779, 168.7377, 421.8442
Transformer.MAI1P_66, 166.7441, 416.8077, 0.08773106, 0.1666972, 166.6564, 416.641
Transformer.MAI1P_67, 151.5288, 360.4328, 32.40538, 30.94264, 119.1234, 329.4902
Transformer.MAI1P_68, 251.9285, 597.736, 64.33668, 90.73107, 187.5918, 507.0049
Transformer.MAI1P_69, 186.9627, 505.2564, 0.09475519, 0.2078538, 186.868, 505.0486
Transformer.MAI1P_70, 193.7446, 450.6051, 28.04681, 36.36046, 165.6978, 414.2446
Transformer.MAI1P_71, 271.8632, 553.0014, 105.1931, 136.3262, 166.6701, 416.6752
Transformer.MAI1P_72, 190.0477, 512.389, 1.027025, 1.522386, 189.0206, 510.8666
Transformer.MAI1P_73, 201.3167, 527.724, 12.71656, 17.9939, 188.6001, 509.7301
Transformer.MAI1P_74, 291.8172, 1074.668, 0.2422335, 0.4441961, 291.5749, 1074.223
Transformer.MAI1P_75, 191.9498, 449.8071, 25.0058, 32.44714, 166.944, 417.36
Transformer.MAI1P_76, 186.9525, 505.2288, 0.09475002, 0.2078424, 186.8578, 505.021
Transformer.MAI1P_77, 254.6541, 531.0539, 87.69678, 113.6606, 166.9573, 417.3933
Transformer.MAI1P_78, 191.2415, 514.0647, 2.225953, 3.211796, 189.0156, 510.8529
Transformer.MAI1P_79, 166.4665, 416.1137, 0.08758498, 0.1664197, 166.3789, 415.9473
Transformer.MAI1P_80, 516.65, 964.8617, 333.5928, 470.1126, 183.0572, 494.7491
Transformer.MAI1P_81, 166.7423, 416.8031, 0.0877301, 0.1666954, 166.6546, 416.6364
Transformer.MAI1P_82, 139.7517, 346.9978, 21.8431, 20.8675, 117.9086, 326.1303
Transformer.MAI1P_83, 204.8313, 467.185, 37.31262, 48.3882, 167.5187, 418.7968
Transformer.MAI1P_84, 202.2233, 461.0245, 37.01521, 48.00424, 165.2081, 413.0203
Transformer.MAI1P_85, 293.7377, 1073.446, 4.011287, 6.032635, 289.7265, 1067.413
Transformer.MAI1P_86, 177.9448, 432.9773, 9.877882, 12.80996, 168.0669, 420.1674
Transformer.MAI1P_87, 294.1873, 1078.476, 2.429087, 3.577128, 291.7582, 1074.899
Transformer.MAI1P_88, 187.0972, 505.6197, 0.09482333, 0.2080032, 187.0023, 505.4117
Transformer.MAI1P_89, 186.9525, 505.2288, 0.09475002, 0.2078424, 186.8578, 505.021
Transformer.MAI1P_90, 146.1212, 352.7763, 28.37652, 27.09935, 117.7447, 325.6769
Transformer.MAI1P_91, 288.5349, 1061.824, 0.5857842, 0.9585312, 287.9492, 1060.865
Transformer.MAI1P_92, 221.1206, 554.5456, 33.1878, 46.61907, 187.9328, 507.9265
Transformer.MAI1P_93, 372.3493, 1327.663, 10.4473, 20.79509, 361.902, 1306.868
Transformer.MAI1P_94, 188.635, 444.0381, 22.91519, 29.73844, 165.7198, 414.2996
Transformer.MAI1P_95, 287.59, 1059.1, 0.2387247, 0.4377616, 287.3513, 1058.663
Transformer.MAI1P_96, 167.9081, 418.2867, 1.275689, 1.705658, 166.6324, 416.581
Transformer.MAI1P_97, 290.4284, 1069.553, 0.2410808, 0.4420822, 290.1874, 1069.111
Transformer.MAI1P_98, 290.4284, 1069.553, 0.2410808, 0.4420822, 290.1873, 1069.111
Transformer.MAI1P_99, 167.6619, 417.999, 1.003604, 1.353189, 166.6583, 416.6458
Transformer.MAI1P_100, 168.3434, 418.8013, 1.751824, 2.32246, 166.5915, 416.4789
Transformer.MAI1P_101, 363.2051, 1311.274, 0.2476935, 0.5943599, 362.9574, 1310.679
Transformer.MAI1P_102, 118.7686, 328.371, 0.09409821, 0.1224173, 118.6745, 328.2486
Transformer.MAI1P_103, 288.2108, 1059.631, 1.042984, 1.644123, 287.1678, 1057.987
Transformer.MAI1P_104, 169.7099, 419.901, 3.674985, 4.813665, 166.0349, 415.0873
Transformer.MAI1P_105, 177.6188, 429.773, 11.89394, 15.46089, 165.7249, 414.3121
Transformer.MAI1P_106, 189.1829, 511.2564, 0.09588042, 0.2103221, 189.087, 511.046
Transformer.MAI1P_107, 166.75, 416.8224, 0.08773415, 0.1667031, 166.6623, 416.6557
Transformer.MAI1P_108, 166.4845, 416.1586, 0.08759443, 0.1664376, 166.3969, 415.9922
Transformer.MAI1P_109, 133.2235, 342.256, 14.42953, 13.67703, 118.7939, 328.579
Transformer.MAI1P_110, 194.842, 517.1468, 7.195062, 9.992839, 187.647, 507.1539
Transformer.MAI1P_111, 119.6235, 330.7347, 0.09477554, 0.1232985, 119.5287, 330.6114
Transformer.MAI1P_112, 119.9532, 331.6462, 0.09503675, 0.1236383, 119.8582, 331.5226
Transformer.MAI1P_113, 290.199, 1068.709, 0.2408903, 0.441733, 289.9581, 1068.267
Transformer.MAI1P_114, 1169.616, 2370.435, 887.6235, 1331.515, 281.9926, 1038.92
Transformer.MAI1P_115, 188.2899, 508.8431, 0.09542784, 0.2093293, 188.1945, 508.6338
Transformer.MAI1P_116, 186.4857, 503.9674, 0.09451345, 0.2073235, 186.3912, 503.76
Transformer.MAI1P_117, 369.3439, 1182.442, 81.65738, 122.5449, 287.6865, 1059.898
Transformer.MAI1P_118, 151.827, 359.5562, 33.34431, 31.83806, 118.4827, 327.7181
Transformer.MAI1P_119, 203.8377, 527.4182, 18.2191, 25.74631, 185.6186, 501.6719
Transformer.MAI1P_120, 167.9341, 419.7822, 0.08835714, 0.1678868, 167.8457, 419.6143
Transformer.MAI1P_121, 367.0873, 1325.29, 0.250341, 0.6007128, 366.8369, 1324.689
Transformer.MAI1P_122, 362.8944, 1310.152, 0.2474816, 0.5938515, 362.6469, 1309.558
Transformer.MAI1P_123, 168.186, 420.4119, 0.08848967, 0.1681387, 168.0975, 420.2437
Transformer.MAI1P_124, 229.3903, 495.3207, 64.805, 83.85743, 164.5853, 411.4633
Transformer.MAI1P_125, 237.5359, 505.5536, 73.33338, 95.0473, 164.2025, 410.5063
Transformer.MAI1P_126, 168.2191, 420.4947, 0.08850711, 0.1681718, 168.1306, 420.3265
Transformer.MAI1P_127, 166.2969, 415.6898, 0.08749575, 0.1662501, 166.2094, 415.5235
Transformer.MAI1P_128, 330.5779, 627.4069, 165.2828, 214.1693, 165.2951, 413.2377
Transformer.MAI1P_129, 188.2865, 508.8338, 0.09542609, 0.2093255, 188.1911, 508.6245
Transformer.MAI1P_130, 291.421, 1072.889, 0.3880196, 0.6627332, 291.033, 1072.227
Transformer.MAI1P_131, 278.1799, 477.1298, 161.137, 153.3942, 117.0429, 323.7356
Transformer.MAI1P_132, 188.2766, 508.8071, 0.09542109, 0.2093145, 188.1812, 508.5978
Transformer.MAI1P_133, 84.72496, 211.6902, 0.07733354, 0.07114247, 84.64762, 211.6191
Transformer.MAI1P_134, 205.3299, 529.3707, 19.82225, 27.99864, 185.5076, 501.372
Transformer.MAI1P_135, 366.9471, 1317.721, 4.58084, 9.176299, 362.3662, 1308.545
Transformer.MAI1P_136, 234.9757, 572.8558, 48.11956, 67.83931, 186.8561, 505.0165
Transformer.MAI1P_137, 200.3026, 524.9509, 12.74126, 18.0283, 187.5614, 506.9226
Transformer.MAI1P_138, 316.0803, 1105.368, 27.09637, 40.69063, 288.9839, 1064.678
Transformer.MAI1P_139, 261.7153, 538.9336, 95.80121, 124.1483, 165.9141, 414.7853
Transformer.MAI1P_140, 152.5996, 361.0016, 33.72596, 32.20221, 118.8736, 328.7994
Transformer.MAI1P_141, 168.2206, 420.4985, 0.0885079, 0.1681733, 168.1321, 420.3303
Transformer.MAI1P_142, 187.0876, 443.6871, 19.99528, 25.95626, 167.0923, 417.7308
Transformer.MAI1P_143, 293.3138, 1073.099, 3.484614, 5.307335, 289.8292, 1067.792
Transformer.MAI1P_144, 287.3451, 1058.198, 0.2385191, 0.4373853, 287.1066, 1057.761
Transformer.MAI1P_145, 294.1798, 1076.173, 3.538289, 5.388081, 290.6416, 1070.785
Transformer.MAI1P_146, 168.2237, 420.413, 0.1658237, 0.2683132, 168.0579, 420.1446
Transformer.MAI1P_147, 422.7035, 835.6823, 237.1874, 334.2875, 185.5161, 501.3948
Transformer.MAI1P_148, 289.3673, 1060.322, 2.67731, 4.095508, 286.69, 1056.226
Transformer.MAI1P_149, 212.1286, 541.2982, 24.81198, 35.03697, 187.3167, 506.2613
Transformer.MAI1P_150, 432.1934, 1274.315, 145.5953, 218.4277, 286.598, 1055.887
Transformer.MAI1P_151, 349.858, 732.9865, 164.3845, 231.7069, 185.4735, 501.2796
Transformer.MAI1P_152, 290.106, 1068.366, 0.2408132, 0.4415914, 289.8652, 1067.924
Transformer.MAI1P_153, 193.2369, 395.9492, 76.46783, 72.97085, 116.7691, 322.9783
Transformer.MAI1P_154, 362.9728, 1310.435, 0.2475351, 0.5939799, 362.7253, 1309.841
Transformer.MAI1P_155, 192.2345, 450.0736, 25.37535, 32.92584, 166.8591, 417.1478
Transformer.MAI1P_156, 188.3033, 508.8794, 0.09543464, 0.2093442, 188.2079, 508.67
Transformer.MAI1P_157, 175.2995, 381.4092, 57.1127, 54.5094, 118.1868, 326.8998
Transformer.MAI1P_158, 190.65, 512.2144, 2.420098, 3.485053, 188.2299, 508.7294
Transformer.MAI1P_159, 188.3787, 509.0829, 0.09547281, 0.2094279, 188.2832, 508.8735
Transformer.MAI1P_160, 367.0686, 1180.299, 78.80034, 118.2579, 288.2683, 1062.041
Transformer.MAI1P_161, 190.8511, 448.1037, 24.11396, 31.26101, 166.7371, 416.8427
Transformer.MAI1P_162, 123.1311, 333.3509, 4.004903, 3.852887, 119.1262, 329.498
Transformer.MAI1P_163, 290.1057, 1068.365, 0.2408129, 0.4415909, 289.8648, 1067.923
Transformer.MAI1P_164, 189.0772, 510.9707, 0.09582684, 0.2102045, 188.9814, 510.7605
Transformer.MAI1P_165, 184.1304, 389.5126, 66.07545, 62.97764, 118.055, 326.535
Transformer.MAI1P_166, 202.2164, 527.382, 14.81168, 20.88277, 187.4047, 506.4993
Transformer.MAI1P_167, 204.9562, 528.7423, 19.47455, 27.44047, 185.4817, 501.3018
Transformer.MAI1P_168, 168.1462, 417.7649, 2.202921, 2.906634, 165.9433, 414.8583
Transformer.MAI1P_169, 324.1326, 365.8506, 241.5765, 159.4604, 82.55611, 206.3903
Transformer.MAI1P_170, 167.9125, 419.7282, 0.08834578, 0.1678653, 167.8242, 419.5604
Transformer.MAI1P_171, 151.0378, 358.2808, 32.68606, 30.92498, 118.3517, 327.3558
Transformer.MAI1P_172, 195.4142, 452.1101, 30.28362, 39.28374, 165.1305, 412.8264
Transformer.MAI1P_173, 362.8771, 1310.09, 0.2474698, 0.5938232, 362.6297, 1309.496
Transformer.MAI1P_174, 124.8452, 334.8965, 5.763332, 5.521049, 119.0819, 329.3754
Transformer.MAI1P_175, 276.5386, 557.8459, 110.8746, 143.6859, 165.664, 414.16
Transformer.MAI1P_176, 190.8101, 509.5007, 4.851796, 6.910651, 185.9583, 502.5901
Transformer.MAI1P_177, 191.7162, 510.8744, 5.683069, 8.082024, 186.0332, 502.7923
Transformer.MAI1P_178, 190.3811, 511.8608, 2.131679, 3.078649, 188.2494, 508.7821
Transformer.MAI1P_179, 197.4218, 521.2309, 9.598206, 13.59954, 187.8236, 507.6314
Transformer.MAI1P_180, 188.3026, 508.8773, 0.09543425, 0.2093434, 188.2072, 508.668
Transformer.MAI1P_181, 167.9069, 419.7142, 0.08834282, 0.1678596, 167.8185, 419.5463
Transformer.MAI1P_182, 313.321, 602.3661, 148.2081, 189.5839, 165.1129, 412.7822
Transformer.MAI1P_183, 167.6756, 417.2018, 1.693585, 2.24682, 165.982, 414.9549
Transformer.MAI1P_184, 188.9458, 510.6156, 0.09576025, 0.2100585, 188.8501, 510.4056
Transformer.MAI1P_185, 275.4391, 629.2946, 89.06068, 125.569, 186.3784, 503.7255
Transformer.MAI1P_186, 287.4212, 1058.479, 0.2385846, 0.4375047, 287.1827, 1058.041
Transformer.MAI1P_187, 190.762, 509.4309, 4.805173, 6.844954, 185.9568, 502.5859
Transformer.MAI1P_188, 290.3794, 1069.373, 0.2410401, 0.4420076, 290.1384, 1068.931
Transformer.MAI1P_189, 119.6226, 330.7322, 0.09477482, 0.1232975, 119.5278, 330.6089
Transformer.MAI1P_190, 119.6916, 330.9231, 0.09482952, 0.1233687, 119.5968, 330.7997
Transformer.MAI1P_191, 362.9731, 1310.436, 0.2475353, 0.5939803, 362.7256, 1309.842
Transformer.MAI1P_192, 119.5862, 330.6316, 0.09474601, 0.12326, 119.4915, 330.5084
Transformer.MAI1P_193, 119.6104, 330.6984, 0.09476515, 0.1232849, 119.5156, 330.5752
Transformer.MAI1P_194, 291.0216, 1062.645, 4.404082, 6.685654, 286.6175, 1055.959
Transformer.MAI1P_195, 287.4065, 1058.425, 0.2385723, 0.4374823, 287.1679, 1057.987
Transformer.MAI1P_196, 366.4994, 1323.167, 0.2499401, 0.5997508, 366.2494, 1322.567
Transformer.MAI1P_197, 175.9114, 429.5883, 8.504195, 11.07015, 167.4072, 418.5181
Transformer.MAI1P_198, 290.1861, 1068.661, 0.2408796, 0.4417133, 289.9452, 1068.219
Transformer.MAI1P_199, 290.191, 1068.679, 0.2408837, 0.4417207, 289.9501, 1068.237
...
Capacitor.CAP0, 0, -301667.6, 0, -301667.6, 0, 0
Capacitor.CAP1, 0, -306377.1, 0, -306377.1, 0, 0
Line.LV1FMAI1, 14.76071, 2.71705, 14.76071, 2.71705, 0, 0
Line.LV1FMAI2, 157.9082, 29.01723, 157.9082, 29.01723, 0, 0
Line.LV1FMAI3, 19.42771, 3.609274, 19.42771, 3.609274, 0, 0
...