test/TEST190523/MAI_EXP_VOLTAGES.CSV
Bus, BasekV, Node1, Magnitude1, Angle1, pu1, Node2, Magnitude2, Angle2, pu2, Node3, Magnitude3, Angle3, pu3
"SOURCEBUS", 69, 1,      41833,   -0.1,    1.0501, 2,    41823.5, -120.2,    1.0499, 3,    41807.4,  119.9,    1.0495
"BUSMVMAI1", 12.8, 1,    7374.29,  -30.4,   0.99786, 2,    7376.07, -150.5,    0.9981, 3,    7364.54,   89.4,   0.99654
"BUSMVMAI136", 12.505, 1,    7374.29,  -30.4,    1.0214, 2,    7376.04, -150.5,    1.0216, 3,     7364.5,   89.4,      1.02
"BUSMVMAI3", 12.505, 1,    7371.32,  -30.8,     1.021, 2,    7346.29, -150.8,    1.0175, 3,    7332.15,   88.7,    1.0155
"BUSMVMAI2", 12.505, 1,    7371.31,  -30.8,     1.021, 2,     7346.2, -150.9,    1.0175, 3,    7332.07,   88.7,    1.0155
"BUSMVMAI4", 12.505, 1,    7371.23,  -30.9,    1.0209, 2,    7345.36, -150.9,    1.0174, 3,    7331.17,   88.7,    1.0154
"BUSMVMAI46", 12.505, 1,    7371.32,  -30.8,     1.021, 2,    7346.32, -150.8,    1.0175, 3,    7332.19,   88.7,    1.0155
"BUSMVMAI5", 12.505, 1,    7370.91,  -30.9,    1.0209, 2,    7344.36, -150.9,    1.0172, 3,    7330.09,   88.7,    1.0152
"BUSMVMAI862", 12.505, 1,    7371.22,  -30.9,    1.0209, 0, 0, 0, 0, 0, 0, 0, 0
"BUSMVMAI6", 12.505, 1,    7370.85,  -30.9,    1.0209, 2,    7344.17, -150.9,    1.0172, 3,     7329.9,   88.7,    1.0152
"BUSMVMAI859", 12.505, 3,    7330.07,   88.7,    1.0152, 0, 0, 0, 0, 0, 0, 0, 0
"BUSMVMAI860", 12.505, 3,    7330.09,   88.7,    1.0152, 0, 0, 0, 0, 0, 0, 0, 0
"BUSMVMAI7", 12.505, 1,    7370.39,  -30.9,    1.0208, 2,    7343.33, -150.9,    1.0171, 3,    7328.96,   88.7,    1.0151
"BUSMVMAI8", 12.505, 1,    7370.59,  -30.9,    1.0209, 2,    7342.04, -150.9,    1.0169, 3,    7328.37,   88.6,     1.015
"BUSMVMAI9", 12.505, 1,    7370.39,  -30.9,    1.0208, 2,    7343.33, -150.9,    1.0171, 3,    7328.96,   88.7,    1.0151
"BUSMVMAI10", 12.505, 1,    7370.05,  -30.9,    1.0208, 2,    7343.33, -150.9,    1.0171, 3,    7328.67,   88.7,    1.0151
"BUSMVMAI56", 12.505, 1,    7370.22,  -30.9,    1.0208, 2,    7343.33, -150.9,    1.0171, 3,    7328.82,   88.7,    1.0151
"BUSMVMAI861", 12.505, 3,    7330.02,   88.7,    1.0152, 0, 0, 0, 0, 0, 0, 0, 0
"BUSMVMAI12", 12.505, 1,    7370.76,  -30.9,    1.0209, 2,    7340.98, -150.9,    1.0168, 3,     7327.9,   88.6,    1.0149
"BUSMVMAI51", 12.505, 1,    7370.59,  -30.9,    1.0209, 2,    7342.04, -150.9,    1.0169, 3,    7328.37,   88.6,     1.015
"BUSMVMAI2171", 12.505, 1,    7370.59,  -30.9,    1.0209, 0, 0, 0, 0, 0, 0, 0, 0
"BUSMVMAI863", 12.505, 3,    7329.99,   88.7,    1.0152, 0, 0, 0, 0, 0, 0, 0, 0
"BUSMVMAI2165", 12.505, 3,    7328.96,   88.7,    1.0151, 0, 0, 0, 0, 0, 0, 0, 0
"BUSMVMAI694", 12.505, 1,    7370.39,  -30.9,    1.0208, 2,    7343.33, -150.9,    1.0171, 3,    7328.96,   88.7,    1.0151
"BUSMVMAI122", 12.505, 1,    7370.03,  -30.9,    1.0208, 2,    7343.33, -150.9,    1.0171, 3,    7328.65,   88.7,     1.015
"BUSMVMAI11", 12.505, 1,    7370.76,  -30.9,    1.0209, 2,    7340.98, -150.9,    1.0168, 3,     7327.9,   88.6,    1.0149
"BUSMVMAI13", 12.505, 1,    7370.76,  -30.9,    1.0209, 2,    7340.96, -150.9,    1.0168, 3,     7327.9,   88.6,    1.0149
"BUSMVMAI18", 12.505, 1,    7370.83,  -30.9,    1.0209, 2,     7340.6, -150.9,    1.0167, 3,    7327.71,   88.6,    1.0149
"BUSMVMAI14", 12.505, 1,    7370.76,  -30.9,    1.0209, 2,    7340.93, -150.9,    1.0167, 3,    7327.91,   88.6,    1.0149
"BUSMVMAI15", 12.505, 1,    7370.76,  -30.9,    1.0209, 2,     7340.9, -150.9,    1.0167, 3,    7327.91,   88.6,    1.0149
"BUSMVMAI16", 12.505, 1,    7370.76,  -30.9,    1.0209, 2,     7340.9, -150.9,    1.0167, 3,    7327.91,   88.6,    1.0149
"BUSMVMAI2166", 12.505, 2,     7340.9, -150.9,    1.0167, 0, 0, 0, 0, 0, 0, 0, 0
"BUSMVMAI2172", 12.505, 1,    7371.22,  -30.9,    1.0209, 0, 0, 0, 0, 0, 0, 0, 0
"BUSMVMAI864", 12.505, 3,    7329.96,   88.7,    1.0152, 0, 0, 0, 0, 0, 0, 0, 0
"BUSMVMAI865", 12.505, 3,    7329.92,   88.7,    1.0152, 0, 0, 0, 0, 0, 0, 0, 0
"BUSMVMAI17", 12.505, 1,    7370.76,  -30.9,    1.0209, 2,     7340.9, -150.9,    1.0167, 3,    7327.91,   88.6,    1.0149
"BUSMVMAI695", 12.505, 1,    7370.76,  -30.9,    1.0209, 2,     7340.9, -150.9,    1.0167, 3,    7327.91,   88.6,    1.0149
"BUSMVMAI866", 12.505, 3,    7329.92,   88.7,    1.0152, 0, 0, 0, 0, 0, 0, 0, 0
"BUSMVMAI2176", 12.505, 3,    7329.92,   88.7,    1.0152, 0, 0, 0, 0, 0, 0, 0, 0
"BUSMVMAI2177", 12.505, 3,    7329.91,   88.7,    1.0152, 0, 0, 0, 0, 0, 0, 0, 0
"BUSMVMAI2178", 12.505, 3,    7329.89,   88.7,    1.0152, 0, 0, 0, 0, 0, 0, 0, 0
"BUSMVMAI19", 12.505, 1,    7370.95,  -30.9,    1.0209, 2,     7339.9, -150.9,    1.0166, 3,    7327.39,   88.6,    1.0149
"BUSMVMAI20", 12.505, 1,    7371.13,  -30.9,    1.0209, 2,    7338.91, -150.9,    1.0165, 3,    7326.92,   88.6,    1.0148
"BUSMVMAI53", 12.505, 1,    7370.95,  -30.9,    1.0209, 2,     7339.9, -150.9,    1.0166, 3,    7327.39,   88.6,    1.0149
"BUSMVMAI21", 12.505, 1,    7371.32,  -30.9,     1.021, 2,    7337.88, -150.9,    1.0163, 3,    7326.44,   88.6,    1.0147
"BUSMVMAI22", 12.505, 1,    7371.53,  -30.9,     1.021, 2,    7336.66, -150.9,    1.0162, 3,    7325.89,   88.6,    1.0147
"BUSMVMAI23", 12.505, 1,    7371.32,  -30.9,     1.021, 2,    7337.88, -150.9,    1.0163, 3,    7326.44,   88.6,    1.0147
"BUSMVMAI25", 12.505, 1,    7371.75,  -30.9,     1.021, 2,    7335.41, -150.9,     1.016, 3,    7325.32,   88.5,    1.0146
"BUSMVMAI52", 12.505, 1,    7371.53,  -30.9,     1.021, 2,    7336.66, -150.9,    1.0162, 3,    7325.89,   88.6,    1.0147
"BUSMVMAI54", 12.505, 1,    7371.53,  -30.9,     1.021, 2,    7336.66, -150.9,    1.0162, 3,    7325.89,   88.6,    1.0147
"BUSMVMAI55", 12.505, 1,    7371.53,  -30.9,     1.021, 2,    7336.66, -150.9,    1.0162, 3,    7325.89,   88.6,    1.0147
"BUSMVMAI696", 12.505, 1,    7371.32,  -30.9,     1.021, 2,    7337.88, -150.9,    1.0163, 3,    7326.44,   88.6,    1.0147
"BUSMVMAI24", 12.505, 1,    7371.77,  -30.9,     1.021, 2,    7335.29, -150.9,     1.016, 3,    7325.27,   88.5,    1.0146
"BUSMVMAI26", 12.505, 1,    7371.99,  -30.9,    1.0211, 2,    7334.04, -150.9,    1.0158, 3,    7324.71,   88.5,    1.0145
"BUSMVMAI49", 12.505, 1,    7371.75,  -30.9,     1.021, 2,    7335.41, -150.9,     1.016, 3,    7325.32,   88.5,    1.0146
"BUSMVMAI50", 12.505, 1,    7371.75,  -30.9,     1.021, 2,    7335.41, -150.9,     1.016, 3,    7325.32,   88.5,    1.0146
"BUSMVMAI27", 12.505, 1,    7371.99,  -30.9,    1.0211, 2,    7334.04, -150.9,    1.0158, 3,     7324.7,   88.5,    1.0145
"BUSMVMAI28", 12.505, 1,    7372.16,  -30.9,    1.0211, 2,    7333.07, -150.9,    1.0157, 3,    7324.28,   88.5,    1.0144
"BUSMVMAI29", 12.505, 1,    7371.98,  -30.9,     1.021, 2,    7334.04, -150.9,    1.0158, 3,    7324.69,   88.5,    1.0145
"BUSMVMAI31", 12.505, 1,    7372.36,  -30.9,    1.0211, 2,    7331.96, -150.9,    1.0155, 3,    7323.79,   88.5,    1.0144
"BUSMVMAI30", 12.505, 1,    7371.97,  -30.9,     1.021, 2,    7334.05, -150.9,    1.0158, 3,    7324.69,   88.5,    1.0145
"BUSMVMAI34", 12.505, 1,    7371.96,  -30.9,     1.021, 2,    7334.05, -150.9,    1.0158, 3,    7324.68,   88.5,    1.0145
"BUSMVMAI867", 12.505, 1,    7372.33,  -30.9,    1.0211, 0, 0, 0, 0, 0, 0, 0, 0
"BUSMVMAI43", 12.505, 1,    7372.36,  -30.9,    1.0211, 2,    7331.93, -150.9,    1.0155, 3,    7323.78,   88.5,    1.0144
"BUSMVMAI871", 12.505, 2,    7331.96, -150.9,    1.0155, 0, 0, 0, 0, 0, 0, 0, 0
"BUSMVMAI33", 12.505, 1,    7372.43,  -30.9,    1.0211, 2,    7331.61, -151.0,    1.0155, 3,    7323.65,   88.5,    1.0144
"BUSMVMAI32", 12.505, 1,    7372.61,  -30.9,    1.0211, 2,    7330.65, -151.0,    1.0153, 3,    7323.24,   88.5,    1.0143
"BUSMVMAI37", 12.505, 1,    7372.86,  -30.9,    1.0212, 2,    7329.33, -151.0,    1.0151, 3,     7322.7,   88.5,    1.0142
"BUSMVMAI44", 12.505, 1,    7372.37,  -30.9,    1.0211, 2,    7331.91, -150.9,    1.0155, 3,    7323.77,   88.5,    1.0144
"BUSMVMAI35", 12.505, 1,    7371.96,  -30.9,     1.021, 2,    7334.06, -150.9,    1.0158, 3,    7324.67,   88.5,    1.0145
"BUSMVMAI36", 12.505, 1,    7371.96,  -30.9,     1.021, 2,    7334.06, -150.9,    1.0158, 3,    7324.67,   88.5,    1.0145
"BUSMVMAI869", 12.505, 1,    7372.33,  -30.9,    1.0211, 0, 0, 0, 0, 0, 0, 0, 0
"BUSMVMAI38", 12.505, 1,    7373.06,  -30.9,    1.0212, 2,    7328.28, -151.0,     1.015, 3,    7322.27,   88.4,    1.0142
"BUSMVMAI2181", 12.505, 1,    7372.85,  -30.9,    1.0212, 0, 0, 0, 0, 0, 0, 0, 0
"BUSMVMAI868", 12.505, 1,    7372.27,  -30.9,    1.0211, 0, 0, 0, 0, 0, 0, 0, 0
"BUSMVMAI870", 12.505, 1,    7372.21,  -30.9,    1.0211, 0, 0, 0, 0, 0, 0, 0, 0
"BUSMVMAI39", 12.505, 1,    7373.07,  -30.9,    1.0212, 2,    7328.28, -151.0,     1.015, 3,    7322.24,   88.4,    1.0142
"BUSMVMAI40", 12.505, 1,    7373.23,  -30.9,    1.0212, 2,    7327.26, -151.0,    1.0149, 3,    7321.88,   88.4,    1.0141
"BUSMVMAI697", 12.505, 1,    7373.09,  -30.9,    1.0212, 2,    7328.29, -151.0,     1.015, 3,    7322.15,   88.4,    1.0141
"BUSMVMAI41", 12.505, 1,    7373.43,  -30.9,    1.0213, 2,    7326.08, -151.0,    1.0147, 3,    7321.41,   88.4,     1.014
"BUSMVMAI42", 12.505, 1,    7373.44,  -30.9,    1.0213, 2,    7326.08, -151.0,    1.0147, 3,     7321.4,   88.4,     1.014
"BUSMVMAI48", 12.505, 1,    7373.59,  -30.9,    1.0213, 2,     7325.1, -151.0,    1.0146, 3,    7321.04,   88.4,     1.014
"BUSMVMAI303", 12.505, 1,    7373.51,  -30.9,    1.0213, 2,    7325.59, -151.0,    1.0146, 3,    7321.23,   88.4,     1.014
"BUSMVMAI45", 12.505, 1,    7373.44,  -30.9,    1.0213, 2,    7326.07, -151.0,    1.0147, 3,     7321.4,   88.4,     1.014
"BUSMVMAI701", 12.505, 1,    7373.44,  -30.9,    1.0213, 2,    7326.08, -151.0,    1.0147, 3,    7321.39,   88.4,     1.014
"BUSMVMAI47", 12.505, 1,    7371.35,  -30.8,     1.021, 2,    7346.69, -150.8,    1.0175, 3,    7332.59,   88.7,    1.0156
"BUSMVMAI179", 12.505, 1,    7371.34,  -30.8,     1.021, 2,    7346.51, -150.8,    1.0175, 3,    7332.39,   88.7,    1.0156
"BUSMVMAI160", 12.505, 1,    7371.44,  -30.8,     1.021, 2,    7347.58, -150.8,    1.0177, 3,    7333.54,   88.7,    1.0157
"BUSMVMAI1103", 12.505, 1,    7373.55,  -30.9,    1.0213, 0, 0, 0, 0, 0, 0, 0, 0
"BUSMVMAI259", 12.505, 1,    7373.69,  -30.9,    1.0213, 2,    7324.59, -151.0,    1.0145, 3,    7320.87,   88.4,     1.014
"BUSMVMAI304", 12.505, 1,    7373.59,  -30.9,    1.0213, 2,     7325.1, -151.0,    1.0146, 3,    7321.04,   88.4,     1.014
"BUSMVMAI702", 12.505, 1,    7371.75,  -30.9,     1.021, 2,    7335.41, -150.9,     1.016, 3,    7325.32,   88.5,    1.0146
"BUSMVMAI58", 12.505, 1,    7369.81,  -30.9,    1.0207, 2,    7343.33, -150.9,    1.0171, 3,    7328.47,   88.7,     1.015
"BUSMVMAI57", 12.505, 1,       7369,  -30.9,    1.0206, 2,    7343.33, -150.9,    1.0171, 3,    7327.78,   88.6,    1.0149
"BUSMVMAI60", 12.505, 1,    7368.65,  -30.9,    1.0206, 2,    7343.33, -150.9,    1.0171, 3,    7327.49,   88.6,    1.0149
"BUSMVMAI703", 12.505, 1,       7369,  -30.9,    1.0206, 2,    7343.33, -150.9,    1.0171, 3,    7327.76,   88.6,    1.0149
"BUSMVMAI123", 12.505, 1,    7370.01,  -30.9,    1.0208, 2,    7343.33, -150.9,    1.0171, 3,    7328.64,   88.7,     1.015
"BUSMVMAI59", 12.505, 1,    7368.17,  -30.9,    1.0205, 2,    7343.35, -150.9,    1.0171, 3,    7327.19,   88.6,    1.0148
"BUSMVMAI61", 12.505, 1,    7367.35,  -30.9,    1.0204, 2,    7343.39, -150.9,    1.0171, 3,    7326.68,   88.6,    1.0148
"BUSMVMAI63", 12.505, 1,    7368.68,  -30.9,    1.0206, 2,    7343.31, -150.9,    1.0171, 3,    7327.45,   88.6,    1.0149
"BUSMVMAI874", 12.505, 3,    7327.49,   88.6,    1.0149, 0, 0, 0, 0, 0, 0, 0, 0
"BUSMVMAI62", 12.505, 1,    7366.53,  -30.9,    1.0203, 2,     7343.4, -150.9,    1.0171, 3,    7326.16,   88.6,    1.0147
"BUSMVMAI64", 12.505, 1,    7365.64,  -30.9,    1.0202, 2,    7343.45, -150.9,    1.0171, 3,    7325.76,   88.6,    1.0146
"BUSMVMAI942", 12.505, 3,    7326.16,   88.6,    1.0147, 0, 0, 0, 0, 0, 0, 0, 0
"BUSMVMAI873", 12.505, 3,    7326.15,   88.6,    1.0147, 0, 0, 0, 0, 0, 0, 0, 0
"BUSMVMAI872", 12.505, 3,    7325.97,   88.6,    1.0147, 0, 0, 0, 0, 0, 0, 0, 0
"BUSMVMAI880", 12.505, 3,    7325.96,   88.6,    1.0147, 0, 0, 0, 0, 0, 0, 0, 0
"BUSMVMAI945", 12.505, 3,    7327.45,   88.6,    1.0149, 0, 0, 0, 0, 0, 0, 0, 0
"BUSMVMAI65", 12.505, 1,     7364.7,  -30.9,      1.02, 2,    7343.46, -150.9,    1.0171, 3,    7325.33,   88.6,    1.0146
"BUSMVMAI66", 12.505, 1,    7363.75,  -30.9,    1.0199, 2,    7343.48, -150.9,    1.0171, 3,    7324.89,   88.6,    1.0145
"BUSMVMAI67", 12.505, 1,    7362.73,  -30.9,    1.0198, 2,    7343.49, -150.9,    1.0171, 3,    7324.42,   88.7,    1.0145
"BUSMVMAI878", 12.505, 1,    7362.67,  -30.9,    1.0198, 0, 0, 0, 0, 0, 0, 0, 0
"BUSMVMAI68", 12.505, 1,    7361.98,  -30.9,    1.0197, 2,    7343.47, -150.9,    1.0171, 3,    7324.07,   88.7,    1.0144
"BUSMVMAI706", 12.505, 1,    7362.73,  -30.9,    1.0198, 2,    7343.49, -150.9,    1.0171, 3,    7324.41,   88.7,    1.0145
"BUSMVMAI876", 12.505, 3,    7327.44,   88.6,    1.0149, 0, 0, 0, 0, 0, 0, 0, 0
"BUSMVMAI875", 12.505, 3,    7327.29,   88.6,    1.0149, 0, 0, 0, 0, 0, 0, 0, 0
"BUSMVMAI877", 12.505, 3,    7327.24,   88.6,    1.0149, 0, 0, 0, 0, 0, 0, 0, 0
"BUSMVMAI883", 12.505, 3,    7327.12,   88.6,    1.0148, 0, 0, 0, 0, 0, 0, 0, 0
"BUSMVMAI884", 12.505, 3,    7327.23,   88.6,    1.0149, 0, 0, 0, 0, 0, 0, 0, 0
"BUSMVMAI886", 12.505, 3,    7327.23,   88.6,    1.0149, 0, 0, 0, 0, 0, 0, 0, 0
"BUSMVMAI885", 12.505, 1,    7362.58,  -30.9,    1.0197, 0, 0, 0, 0, 0, 0, 0, 0
"BUSMVMAI879", 12.505, 3,    7325.71,   88.6,    1.0146, 0, 0, 0, 0, 0, 0, 0, 0
"BUSMVMAI881", 12.505, 3,    7325.67,   88.6,    1.0146, 0, 0, 0, 0, 0, 0, 0, 0
"BUSMVMAI888", 12.505, 3,    7325.66,   88.6,    1.0146, 0, 0, 0, 0, 0, 0, 0, 0
"BUSMVMAI882", 12.505, 3,    7325.64,   88.6,    1.0146, 0, 0, 0, 0, 0, 0, 0, 0
"BUSMVMAI944", 12.505, 3,    7325.64,   88.6,    1.0146, 0, 0, 0, 0, 0, 0, 0, 0
"BUSMVMAI889", 12.505, 3,    7327.01,   88.6,    1.0148, 0, 0, 0, 0, 0, 0, 0, 0
"BUSMVMAI2183", 12.505, 3,    7327.22,   88.6,    1.0149, 0, 0, 0, 0, 0, 0, 0, 0
"BUSMVMAI2184", 12.505, 3,    7327.22,   88.6,    1.0149, 0, 0, 0, 0, 0, 0, 0, 0
"BUSMVMAI71", 12.505, 1,    7361.25,  -30.9,    1.0196, 2,    7343.45, -150.9,    1.0171, 3,    7323.72,   88.7,    1.0144
"BUSMVMAI2182", 12.505, 1,    7362.58,  -30.9,    1.0197, 0, 0, 0, 0, 0, 0, 0, 0
"BUSMVMAI2185", 12.505, 1,    7362.58,  -30.9,    1.0197, 0, 0, 0, 0, 0, 0, 0, 0
"BUSMVMAI2186", 12.505, 1,    7362.53,  -30.9,    1.0197, 0, 0, 0, 0, 0, 0, 0, 0
"BUSMVMAI887", 12.505, 3,    7327.22,   88.6,    1.0148, 0, 0, 0, 0, 0, 0, 0, 0
"BUSMVMAI892", 12.505, 3,    7327.21,   88.6,    1.0148, 0, 0, 0, 0, 0, 0, 0, 0
"BUSMVMAI897", 12.505, 3,    7325.61,   88.6,    1.0146, 0, 0, 0, 0, 0, 0, 0, 0
"BUSMVMAI890", 12.505, 3,    7326.92,   88.6,    1.0148, 0, 0, 0, 0, 0, 0, 0, 0
"BUSMVMAI891", 12.505, 3,    7326.86,   88.6,    1.0148, 0, 0, 0, 0, 0, 0, 0, 0
"BUSMVMAI896", 12.505, 3,    7326.83,   88.6,    1.0148, 0, 0, 0, 0, 0, 0, 0, 0
"BUSMVMAI893", 12.505, 3,     7327.2,   88.6,    1.0148, 0, 0, 0, 0, 0, 0, 0, 0
"BUSMVMAI894", 12.505, 3,    7327.19,   88.6,    1.0148, 0, 0, 0, 0, 0, 0, 0, 0
"BUSMVMAI895", 12.505, 3,    7327.19,   88.6,    1.0148, 0, 0, 0, 0, 0, 0, 0, 0
"BUSMVMAI898", 12.505, 3,    7327.18,   88.6,    1.0148, 0, 0, 0, 0, 0, 0, 0, 0
"BUSMVMAI70", 12.505, 1,    7362.73,  -30.9,    1.0198, 2,     7343.5, -150.9,    1.0171, 3,    7324.39,   88.7,    1.0145
"BUSMVMAI69", 12.505, 1,    7362.73,  -30.9,    1.0198, 2,    7343.49, -150.9,    1.0171, 3,    7324.39,   88.7,    1.0145
"BUSMVMAI708", 12.505, 1,    7362.73,  -30.9,    1.0198, 2,    7343.49, -150.9,    1.0171, 3,     7324.4,   88.7,    1.0145
"BUSMVMAI72", 12.505, 1,     7360.3,  -30.9,    1.0194, 2,    7343.41, -150.9,    1.0171, 3,    7323.27,   88.7,    1.0143
"BUSMVMAI73", 12.505, 1,    7359.38,  -31.0,    1.0193, 2,    7343.39, -150.9,    1.0171, 3,    7322.89,   88.7,    1.0143
"BUSMVMAI134", 12.505, 1,     7360.3,  -30.9,    1.0194, 2,    7343.41, -150.9,    1.0171, 3,    7323.27,   88.7,    1.0143
"BUSMVMAI900", 12.505, 3,    7325.56,   88.6,    1.0146, 0, 0, 0, 0, 0, 0, 0, 0
"BUSMVMAI904", 12.505, 3,    7327.18,   88.6,    1.0148, 0, 0, 0, 0, 0, 0, 0, 0
"BUSMVMAI75", 12.505, 1,    7358.94,  -31.0,    1.0192, 2,    7343.42, -150.9,    1.0171, 3,     7322.7,   88.7,    1.0142
"BUSMVMAI718", 12.505, 1,    7359.38,  -31.0,    1.0193, 2,    7343.39, -150.9,    1.0171, 3,    7322.89,   88.7,    1.0143
"BUSMVMAI899", 12.505, 3,    7325.56,   88.6,    1.0146, 0, 0, 0, 0, 0, 0, 0, 0
"BUSMVMAI902", 12.505, 3,    7325.53,   88.6,    1.0146, 0, 0, 0, 0, 0, 0, 0, 0
"BUSMVMAI901", 12.505, 3,    7325.51,   88.6,    1.0146, 0, 0, 0, 0, 0, 0, 0, 0
"BUSMVMAI903", 12.505, 3,    7325.48,   88.6,    1.0146, 0, 0, 0, 0, 0, 0, 0, 0
"BUSMVMAI905", 12.505, 3,    7325.45,   88.6,    1.0146, 0, 0, 0, 0, 0, 0, 0, 0
"BUSMVMAI907", 12.505, 3,    7325.48,   88.6,    1.0146, 0, 0, 0, 0, 0, 0, 0, 0
"BUSMVMAI906", 12.505, 3,    7325.44,   88.6,    1.0146, 0, 0, 0, 0, 0, 0, 0, 0
"BUSMVMAI946", 12.505, 3,    7325.44,   88.6,    1.0146, 0, 0, 0, 0, 0, 0, 0, 0
"BUSMVMAI74", 12.505, 1,    7358.94,  -31.0,    1.0192, 2,    7343.42, -150.9,    1.0171, 3,     7322.7,   88.7,    1.0142
"BUSMVMAI76", 12.505, 1,    7358.86,  -31.0,    1.0192, 2,    7343.47, -150.9,    1.0171, 3,    7322.66,   88.7,    1.0142
"BUSMVMAI77", 12.505, 1,    7358.69,  -31.0,    1.0192, 2,    7343.39, -150.9,    1.0171, 3,     7322.6,   88.7,    1.0142
"BUSMVMAI79", 12.505, 1,    7358.85,  -31.0,    1.0192, 2,    7343.48, -150.9,    1.0171, 3,    7322.66,   88.7,    1.0142
"BUSMVMAI81", 12.505, 1,    7358.67,  -31.0,    1.0192, 2,    7343.33, -150.9,    1.0171, 3,    7322.62,   88.7,    1.0142
"BUSMVMAI91", 12.505, 1,    7358.04,  -31.0,    1.0191, 2,    7343.39, -150.9,    1.0171, 3,     7322.3,   88.7,    1.0142
"BUSMVMAI78", 12.505, 1,     7358.7,  -31.0,    1.0192, 2,    7343.58, -150.9,    1.0171, 3,    7322.58,   88.7,    1.0142
"BUSMVMAI80", 12.505, 1,    7358.55,  -31.0,    1.0192, 2,    7343.69, -150.9,    1.0171, 3,     7322.5,   88.7,    1.0142
"BUSMVMAI908", 12.505, 1,    7358.48,  -31.0,    1.0192, 0, 0, 0, 0, 0, 0, 0, 0
"BUSMVMAI89", 12.505, 1,     7358.5,  -31.0,    1.0192, 2,    7343.73, -150.9,    1.0171, 3,    7322.46,   88.7,    1.0142
"BUSMVMAI949", 12.505, 3,    7325.48,   88.6,    1.0146, 0, 0, 0, 0, 0, 0, 0, 0
"BUSMVMAI82", 12.505, 1,    7358.66,  -31.0,    1.0192, 2,    7343.29, -150.9,    1.0171, 3,    7322.63,   88.7,    1.0142
"BUSMVMAI83", 12.505, 1,    7358.66,  -31.0,    1.0192, 2,    7343.28, -150.9,    1.0171, 3,    7322.62,   88.7,    1.0142
"BUSMVMAI86", 12.505, 1,    7358.66,  -31.0,    1.0192, 2,    7343.26, -150.9,    1.0171, 3,    7322.61,   88.7,    1.0142
"BUSMVMAI85", 12.505, 1,    7359.35,  -31.0,    1.0193, 2,    7343.32, -150.9,    1.0171, 3,    7322.87,   88.7,    1.0142
"BUSMVMAI84", 12.505, 1,     7359.3,  -31.0,    1.0193, 2,    7343.25, -150.9,    1.0171, 3,    7322.87,   88.7,    1.0142
"BUSMVMAI93", 12.505, 1,    7359.27,  -31.0,    1.0193, 2,    7343.22, -150.9,    1.0171, 3,    7322.87,   88.7,    1.0142
"BUSMVMAI2198", 12.505, 2,    7343.25, -150.9,    1.0171, 0, 0, 0, 0, 0, 0, 0, 0
"BUSMVMAI709", 12.505, 1,    7359.38,  -31.0,    1.0193, 2,    7343.38, -150.9,    1.0171, 3,    7322.89,   88.7,    1.0143
"BUSMVMAI88", 12.505, 1,    7358.67,  -31.0,    1.0192, 2,    7343.25, -150.9,    1.0171, 3,    7322.61,   88.7,    1.0142
"BUSMVMAI87", 12.505, 1,    7358.68,  -31.0,    1.0192, 2,    7343.24, -150.9,    1.0171, 3,     7322.6,   88.7,    1.0142
"BUSMVMAI99", 12.505, 1,    7358.68,  -31.0,    1.0192, 2,    7343.23, -150.9,    1.0171, 3,     7322.6,   88.7,    1.0142
"BUSMVMAI722", 12.505, 1,    7358.68,  -31.0,    1.0192, 2,    7343.24, -150.9,    1.0171, 3,     7322.6,   88.7,    1.0142
"BUSMVMAI909", 12.505, 1,    7358.41,  -31.0,    1.0192, 0, 0, 0, 0, 0, 0, 0, 0
"BUSMVMAI90", 12.505, 1,    7358.47,  -31.0,    1.0192, 2,    7343.76, -150.9,    1.0171, 3,    7322.42,   88.7,    1.0142
"BUSMVMAI102", 12.505, 1,    7358.43,  -31.0,    1.0192, 2,    7343.79, -150.9,    1.0171, 3,    7322.38,   88.7,    1.0142
"BUSMVMAI92", 12.505, 1,    7357.48,  -31.0,     1.019, 2,    7343.38, -150.9,    1.0171, 3,    7322.04,   88.7,    1.0141
"BUSMVMAI132", 12.505, 1,    7358.04,  -31.0,    1.0191, 2,    7343.39, -150.9,    1.0171, 3,     7322.3,   88.7,    1.0142
"BUSMVMAI98", 12.505, 1,    7357.48,  -31.0,     1.019, 2,    7343.38, -150.9,    1.0171, 3,    7322.04,   88.7,    1.0141
"BUSMVMAI100", 12.505, 1,    7356.78,  -31.0,    1.0189, 2,    7343.43, -150.9,    1.0171, 3,    7321.69,   88.7,    1.0141
"BUSMVMAI723", 12.505, 1,    7357.48,  -31.0,     1.019, 2,    7343.37, -150.9,    1.0171, 3,    7322.04,   88.7,    1.0141
"BUSMVMAI96", 12.505, 1,    7359.25,  -31.0,    1.0193, 2,    7343.18, -150.9,    1.0171, 3,    7322.87,   88.7,    1.0142
"BUSMVMAI916", 12.505, 1,    7359.27,  -31.0,    1.0193, 0, 0, 0, 0, 0, 0, 0, 0
"BUSMVMAI95", 12.505, 1,    7357.48,  -31.0,     1.019, 2,    7343.33, -150.9,    1.0171, 3,    7322.05,   88.7,    1.0141
"BUSMVMAI94", 12.505, 1,    7357.46,  -31.0,     1.019, 2,    7343.29, -150.9,    1.0171, 3,    7322.06,   88.7,    1.0141
"BUSMVMAI112", 12.505, 1,    7357.46,  -31.0,     1.019, 2,    7343.29, -150.9,    1.0171, 3,    7322.06,   88.7,    1.0141
"BUSMVMAI126", 12.505, 1,    7357.48,  -31.0,     1.019, 2,    7343.33, -150.9,    1.0171, 3,    7322.05,   88.7,    1.0141
"BUSMVMAI97", 12.505, 1,    7359.21,  -31.0,    1.0193, 2,    7343.13, -150.9,    1.0171, 3,    7322.87,   88.7,    1.0142
"BUSMVMAI711", 12.505, 1,    7359.25,  -31.0,    1.0193, 2,    7343.18, -150.9,    1.0171, 3,    7322.86,   88.7,    1.0142
"BUSMVMAI915", 12.505, 1,    7359.21,  -31.0,    1.0193, 0, 0, 0, 0, 0, 0, 0, 0
...
"BUSLVMAI1", 0.20785, 1,     121.79,   88.7,    1.0149, 2,    121.805,  -91.3,     1.015, 0, 0, 0, 0
"BUSLVMAI2", 0.20785, 1,    121.691,   88.5,    1.0141, 2,    121.704,  -91.5,    1.0142, 0, 0, 0, 0
"BUSLVMAI3", 0.20785, 1,    121.771,   88.7,    1.0148, 2,    121.786,  -91.3,    1.0149, 0, 0, 0, 0
"BUSLVMAI4", 0.20785, 1,    122.165,  -31.1,     1.018, 2,     122.23,  148.9,    1.0186, 0, 0, 0, 0
"BUSLVMAI5", 0.20785, 1,    121.635, -151.0,    1.0136, 2,    121.675,   29.0,     1.014, 0, 0, 0, 0
"BUSLVMAI6", 0.20785, 1,    121.702,   88.5,    1.0142, 2,    121.717,  -91.5,    1.0143, 0, 0, 0, 0
"BUSLVMAI7", 0.20785, 1,    121.795,   88.7,     1.015, 2,    121.809,  -91.3,    1.0151, 0, 0, 0, 0
"BUSLVMAI8", 0.20785, 1,    121.488,   88.6,    1.0124, 2,    121.504,  -91.4,    1.0125, 0, 0, 0, 0
"BUSLVMAI9", 0.20785, 1,    121.436,   88.3,     1.012, 2,    121.448,  -91.7,    1.0121, 0, 0, 0, 0
"BUSLVMAI10", 0.20785, 1,    121.441,   88.3,     1.012, 2,    121.453,  -91.7,    1.0121, 0, 0, 0, 0
"BUSLVMAI11", 0.20785, 1,    121.962, -150.9,    1.0164, 2,    121.975,   29.1,    1.0165, 0, 0, 0, 0
"BUSLVMAI12", 0.20785, 1,    121.943, -150.9,    1.0162, 2,    121.958,   29.1,    1.0163, 0, 0, 0, 0
"BUSLVMAI13", 0.20785, 1,    122.458,  -30.9,    1.0205, 2,    122.473,  149.1,    1.0206, 0, 0, 0, 0
"BUSLVMAI14", 0.20785, 1,    122.463,  -30.9,    1.0205, 2,    122.478,  149.1,    1.0207, 0, 0, 0, 0
"BUSLVMAI15", 0.20785, 1,    122.451,  -30.9,    1.0204, 2,    122.464,  149.1,    1.0205, 0, 0, 0, 0
"BUSLVMAI16", 0.20785, 1,    121.775,   88.7,    1.0148, 2,    121.792,  -91.3,    1.0149, 0, 0, 0, 0
"BUSLVMAI17", 0.20785, 1,    121.319,   88.4,     1.011, 2,    121.344,  -91.6,    1.0112, 0, 0, 0, 0
"BUSLVMAI18", 0.20785, 1,    121.731,   88.6,    1.0144, 2,    121.746,  -91.4,    1.0146, 0, 0, 0, 0
"BUSLVMAI19", 0.20785, 1,    121.738,   88.6,    1.0145, 2,     121.75,  -91.4,    1.0146, 0, 0, 0, 0
"BUSLVMAI20", 0.20785, 1,    121.731, -150.9,    1.0144, 2,    121.755,   29.1,    1.0146, 0, 0, 0, 0
"BUSLVMAI21", 0.20785, 1,     121.79,   88.7,    1.0149, 2,    121.805,  -91.3,     1.015, 0, 0, 0, 0
"BUSLVMAI22", 0.20785, 1,    122.409,  -30.9,    1.0201, 2,    122.466,  149.1,    1.0206, 0, 0, 0, 0
"BUSLVMAI23", 0.20785, 1,    121.769,   88.7,    1.0147, 2,    121.784,  -91.3,    1.0149, 0, 0, 0, 0
"BUSLVMAI24", 0.20785, 1,    121.768,   88.7,    1.0147, 2,    121.783,  -91.3,    1.0149, 0, 0, 0, 0
"BUSLVMAI25", 0.20785, 1,    121.739,   88.6,    1.0145, 2,    121.754,  -91.4,    1.0146, 0, 0, 0, 0
"BUSLVMAI26", 0.20785, 1,    121.923, -150.9,     1.016, 2,    121.938,   29.1,    1.0161, 0, 0, 0, 0
"BUSLVMAI27", 0.20785, 1,    121.975, -150.9,    1.0165, 2,    121.991,   29.1,    1.0166, 0, 0, 0, 0
"BUSLVMAI28", 0.20785, 1,    121.731,   88.6,    1.0144, 2,    121.746,  -91.4,    1.0146, 0, 0, 0, 0
"BUSLVMAI29", 0.20785, 1,    121.545,   88.4,    1.0129, 2,     121.56,  -91.6,     1.013, 0, 0, 0, 0
"BUSLVMAI30", 0.20785, 1,    121.829, -150.9,    1.0152, 2,    121.843,   29.1,    1.0154, 0, 0, 0, 0
"BUSLVMAI31", 0.20785, 1,    121.773,   88.7,    1.0148, 2,    121.788,  -91.3,    1.0149, 0, 0, 0, 0
"BUSLVMAI32", 0.20785, 1,    122.289,  -30.9,    1.0191, 2,    122.301,  149.0,    1.0192, 0, 0, 0, 0
"BUSLVMAI33", 0.20785, 1,     121.72,   88.5,    1.0143, 2,    121.733,  -91.5,    1.0144, 0, 0, 0, 0
"BUSLVMAI34", 0.20785, 1,     120.78,   88.4,    1.0065, 2,    120.855,  -91.6,    1.0071, 0, 0, 0, 0
"BUSLVMAI35", 0.20785, 1,    121.723,   88.7,    1.0144, 2,    121.736,  -91.4,    1.0145, 0, 0, 0, 0
"BUSLVMAI36", 0.20785, 1,    121.721,   88.7,    1.0143, 2,    121.735,  -91.4,    1.0145, 0, 0, 0, 0
"BUSLVMAI37", 0.20785, 1,    121.715,   88.6,    1.0143, 2,     121.73,  -91.4,    1.0144, 0, 0, 0, 0
"BUSLVMAI38", 0.20785, 1,    119.716, -151.4,   0.99763, 2,    119.732,   28.5,   0.99777, 0, 0, 0, 0
"BUSLVMAI39", 0.20785, 1,    121.805, -151.0,     1.015, 2,    121.818,   29.0,    1.0151, 0, 0, 0, 0
"BUSLVMAI40", 0.20785, 1,    121.472,   88.5,    1.0123, 2,    121.516,  -91.5,    1.0126, 0, 0, 0, 0
"BUSLVMAI41", 0.20785, 1,    122.267,  -30.9,    1.0189, 2,    122.282,  149.0,     1.019, 0, 0, 0, 0
"BUSLVMAI42", 0.20785, 1,    122.302,  -30.9,    1.0192, 2,    122.317,  149.1,    1.0193, 0, 0, 0, 0
"BUSLVMAI43", 0.20785, 1,    122.281,  -30.9,     1.019, 2,    122.296,  149.0,    1.0191, 0, 0, 0, 0
"BUSLVMAI44", 0.20785, 1,    121.588,   88.6,    1.0132, 2,    121.617,  -91.4,    1.0135, 0, 0, 0, 0
"BUSLVMAI45", 0.20785, 1,    121.598,   88.6,    1.0133, 2,    121.612,  -91.4,    1.0134, 0, 0, 0, 0
"BUSLVMAI46", 0.20785, 1,    121.672,   88.7,    1.0139, 2,    121.687,  -91.3,    1.0141, 0, 0, 0, 0
"BUSLVMAI47", 0.20785, 1,    121.725,   88.7,    1.0144, 2,    121.738,  -91.4,    1.0145, 0, 0, 0, 0
"BUSLVMAI48", 0.20785, 1,    121.472,   88.5,    1.0123, 2,    121.488,  -91.5,    1.0124, 0, 0, 0, 0
"BUSLVMAI49", 0.20785, 1,    122.277,  -30.9,     1.019, 2,    122.292,  149.1,    1.0191, 0, 0, 0, 0
"BUSLVMAI50", 0.20785, 1,    121.168, -151.2,    1.0097, 2,    121.272,   28.8,    1.0106, 0, 0, 0, 0
"BUSLVMAI51", 0.20785, 1,    121.937,  -31.1,    1.0161, 2,    121.952,  148.9,    1.0163, 0, 0, 0, 0
"BUSLVMAI52", 0.20785, 1,    121.731,   88.7,    1.0144, 2,    121.744,  -91.4,    1.0145, 0, 0, 0, 0
"BUSLVMAI53", 0.20785, 1,    121.717,   88.7,    1.0143, 2,    121.732,  -91.4,    1.0144, 0, 0, 0, 0
"BUSLVMAI54", 0.20785, 1,    121.305,   88.5,    1.0109, 2,     121.32,  -91.5,     1.011, 0, 0, 0, 0
"BUSLVMAI55", 0.20785, 1,    122.295,  -30.9,    1.0191, 2,     122.31,  149.1,    1.0193, 0, 0, 0, 0
"BUSLVMAI56", 0.20785, 1,    121.466,   88.5,    1.0122, 2,    121.479,  -91.5,    1.0123, 0, 0, 0, 0
"BUSLVMAI57", 0.20785, 1,    121.658,   88.7,    1.0138, 2,    121.673,  -91.3,    1.0139, 0, 0, 0, 0
"BUSLVMAI58", 0.20785, 1,    121.729,   88.7,    1.0144, 2,    121.743,  -91.4,    1.0145, 0, 0, 0, 0
"BUSLVMAI59", 0.20785, 1,    122.277,  -30.9,     1.019, 2,    122.292,  149.1,    1.0191, 0, 0, 0, 0
"BUSLVMAI60", 0.20785, 1,    122.258,  -31.0,    1.0188, 2,    122.271,  149.0,    1.0189, 0, 0, 0, 0
"BUSLVMAI61", 0.20785, 1,    121.953,  -31.1,    1.0163, 2,    121.967,  148.9,    1.0164, 0, 0, 0, 0
"BUSLVMAI62", 0.20785, 1,     121.94, -150.9,    1.0162, 2,    121.953,   29.1,    1.0163, 0, 0, 0, 0
"BUSLVMAI63", 0.20785, 1,    122.079,  -31.0,    1.0173, 2,    122.098,  149.0,    1.0175, 0, 0, 0, 0
"BUSLVMAI64", 0.20785, 1,    121.909, -150.9,    1.0159, 2,    121.921,   29.0,     1.016, 0, 0, 0, 0
"BUSLVMAI65", 0.20785, 1,    122.268,  -31.0,    1.0189, 2,    122.281,  149.0,     1.019, 0, 0, 0, 0
"BUSLVMAI66", 0.20785, 1,    121.722,   88.7,    1.0143, 2,    121.735,  -91.4,    1.0145, 0, 0, 0, 0
"BUSLVMAI67", 0.20785, 1,    121.981,  -31.1,    1.0165, 2,    121.996,  148.9,    1.0166, 0, 0, 0, 0
"BUSLVMAI68", 0.20785, 1,    122.033,  -31.1,    1.0169, 2,    122.046,  148.9,     1.017, 0, 0, 0, 0
"BUSLVMAI69", 0.20785, 1,    121.725,   88.7,    1.0144, 2,    121.738,  -91.4,    1.0145, 0, 0, 0, 0
"BUSLVMAI70", 0.20785, 1,    121.438,   88.5,     1.012, 2,    121.463,  -91.5,    1.0122, 0, 0, 0, 0
"BUSLVMAI71", 0.20785, 1,    121.756,  -31.2,    1.0146, 2,    121.769,  148.8,    1.0147, 0, 0, 0, 0
"BUSLVMAI72", 0.20785, 1,    122.228,  -31.0,    1.0186, 2,     122.24,  149.0,    1.0187, 0, 0, 0, 0
"BUSLVMAI73", 0.20785, 1,    122.097,  -31.0,    1.0175, 2,     122.11,  149.0,    1.0176, 0, 0, 0, 0
"BUSLVMAI74", 0.20785, 1,    122.276,  -30.9,     1.019, 2,    122.291,  149.1,    1.0191, 0, 0, 0, 0
"BUSLVMAI75", 0.20785, 1,    121.777, -151.0,    1.0148, 2,    121.791,   29.0,    1.0149, 0, 0, 0, 0
"BUSLVMAI76", 0.20785, 1,    121.722,   88.7,    1.0144, 2,    121.735,  -91.4,    1.0145, 0, 0, 0, 0
"BUSLVMAI77", 0.20785, 1,     122.08,  -31.0,    1.0173, 2,    122.094,  149.0,    1.0174, 0, 0, 0, 0
"BUSLVMAI78", 0.20785, 1,    122.214,  -31.0,    1.0184, 2,    122.226,  149.0,    1.0186, 0, 0, 0, 0
"BUSLVMAI79", 0.20785, 1,    121.664,   88.7,    1.0139, 2,    121.678,  -91.3,     1.014, 0, 0, 0, 0
"BUSLVMAI80", 0.20785, 1,    121.183,   88.4,    1.0099, 2,    121.208,  -91.6,    1.0101, 0, 0, 0, 0
"BUSLVMAI81", 0.20785, 1,    121.721,   88.7,    1.0143, 2,    121.735,  -91.4,    1.0145, 0, 0, 0, 0
...